[TITLE]
;;Project Title/Notes

[OPTIONS]
;;Option             Value
FLOW_UNITS           MLD
INFILTRATION         GREEN_AMPT
FLOW_ROUTING         DYNWAVE
LINK_OFFSETS         DEPTH
MIN_SLOPE            0
ALLOW_PONDING        NO
SKIP_STEADY_STATE    NO

START_DATE           08/28/2015
START_TIME           08:00:00
REPORT_START_DATE    08/28/2015
REPORT_START_TIME    08:00:00
END_DATE             08/29/2015
END_TIME             12:00:00
SWEEP_START          01/01
SWEEP_END            12/31
DRY_DAYS             4
REPORT_STEP          00:01:00
WET_STEP             00:01:00
DRY_STEP             00:01:00
ROUTING_STEP         0:00:05 

INERTIAL_DAMPING     PARTIAL
NORMAL_FLOW_LIMITED  BOTH
FORCE_MAIN_EQUATION  H-W
VARIABLE_STEP        0.75
LENGTHENING_STEP     0
MIN_SURFAREA         1.14
MAX_TRIALS           8
HEAD_TOLERANCE       0.0015
SYS_FLOW_TOL         5
LAT_FLOW_TOL         5
MINIMUM_STEP         0.5
THREADS              1

[EVAPORATION]
;;Data Source    Parameters
;;-------------- ----------------
CONSTANT         0.0
DRY_ONLY         NO

[RAINGAGES]
;;Name           Format    Interval SCF      Source    
;;-------------- --------- ------ ------ ----------
rainfall         INTENSITY 0:01     0        TIMESERIES Oneyear-2h      

[SUBCATCHMENTS]
;;Name           Rain Gage        Outlet           Area     %Imperv  Width    %Slope   CurbLen  SnowPack        
;;-------------- ---------------- ---------------- -------- -------- -------- -------- -------- ----------------
1                rainfall         WS02006247       1.21     25       27.5     0.5      0                        
2                rainfall         WS02006232       3.37     25       45.89389938 0.5      0                        
3                rainfall         WS02006113       5.1      25       56.45794895 0.5      0                        
4                rainfall         WS02004405       2.66     25       40.77376608 0.5      0                        
5                rainfall         WS02004409       1.7      25       32.59601203 0.5      0                        
6                rainfall         WS02004412       4.94     25       55.56527693 0.5      0                        
7                rainfall         XR-Inflow        160      57       316.227766 0.5      0                        
8                rainfall         WS02003102       4.24     25       51.4781507 0.5      0                        
9                rainfall         WS02003094       3.78     25       48.60555525 0.5      0                        
10               rainfall         WS02003198       1.85     25       34.00367628 0.5      0                        
11               rainfall         WS02003193       1.98     25       35.1781182 0.5      0                        
13               rainfall         16               0.16     25       10       0.5      0                        
14               rainfall         13               0.2      25       11.18033989 0.5      0                        
16               rainfall         WS02003188       0.67     25       20.46338193 0.5      0                        
17               rainfall         9                3.67     25       47.89311015 0.5      0                        
18               rainfall         5                4.34     25       52.08166665 0.5      0                        
19               rainfall         20               2.53     25       39.7649343 0.5      0                        
20               rainfall         21               2.8      25       41.83300133 0.5      0                        
21               rainfall         10               1.52     25       30.82207003 0.5      0                        
22               rainfall         14               1.77     25       33.26033675 0.5      0                        
23               rainfall         WS02003115       0.7      25       20.91650066 0.5      0                        
24               rainfall         WS02003118       2.19     25       36.99662148 0.5      0                        
25               rainfall         22               1.14     25       26.69269563 0.5      0                        
26               rainfall         22               2        25       35.35533905 0.5      0                        
27               rainfall         WS02005154       1.95     25       34.9106001 0.5      0                        
28               rainfall         WS02004406       2.63     25       40.54318685 0.5      0                        
29               rainfall         28               2.41     25       38.81043675 0.5      0                        
30               rainfall         29               0.93     25       24.1091269 0.5      0                        
31               rainfall         30               3.55     25       47.1036092 0.5      0                        
32               rainfall         WS02005142       5.12     25       56.5685425 0.5      0                        
33               rainfall         34               0.87     25       23.31844763 0.5      0                        
34               rainfall         28               2.07     25       35.96873643 0.5      0                        
35               rainfall         36               3.03     25       43.51723798 0.5      0                        
36               rainfall         44               5.9      25       60.724789 0.5      0                        
37               rainfall         WS02005135       4.5      25       53.0330086 0.5      0                        
38               rainfall         WS02005129       2.93     25       42.79310693 0.5      0                        
39               rainfall         34               3.41     25       46.16546328 0.5      0                        
40               rainfall         36               3.91     25       49.43429983 0.5      0                        
41               rainfall         40               1.94     25       34.8209707 0.5      0                        
42               rainfall         56               2.28     25       37.74917218 0.5      0                        
43               rainfall         44               0.36     25       15       0.5      0                        
44               rainfall         WS02006228       0.37     25       15.20690633 0.5      0                        
45               rainfall         46               1.03     25       25.37222893 0.5      0                        
46               rainfall         36               2.14     25       36.5718471 0.5      0                        
47               rainfall         48               1.11     25       26.33913438 0.5      0                        
48               rainfall         46               1.58     25       31.42451273 0.5      0                        
49               rainfall         50               2.15     25       36.65719575 0.5      0                        
50               rainfall         WS02005126       1.77     25       33.26033675 0.5      0                        
51               rainfall         WS02005122       2.14     25       36.5718471 0.5      0                        
52               rainfall         51               2.15     25       36.65719575 0.5      0                        
53               rainfall         WS02005186       1.76     25       33.1662479 0.5      0                        
54               rainfall         53               0.83     25       22.77608395 0.5      0                        
55               rainfall         WS02006251       0.83     25       22.77608395 0.5      0                        
56               rainfall         1                2.14     25       36.5718471 0.5      0                        
57               rainfall         WS02005192       5        25       55.90169943 0.5      0                        
58               rainfall         WS02005164       1.04     25       25.49509758 0.5      0                        
59               rainfall         55               0.84     25       22.91287848 0.5      0                        
60               rainfall         56               0.52     25       18.02775638 0.5      0                        
61               rainfall         CC-storage       18       25       106.0660172 0.5      0                        
62               rainfall         JK-storage       19       25       108.9724736 0.5      0                        
63               rainfall         WS02005167       0.97     25       24.62214451 0.5      0                        
64               rainfall         60               1.2      25       27.38612788 0.5      0                        
65               rainfall         WS02005175       1.73     25       32.8823661 0.5      0                        

[SUBAREAS]
;;Subcatchment   N-Imperv   N-Perv     S-Imperv   S-Perv     PctZero    RouteTo    PctRouted 
;;-------------- ---------- ---------- ---------- ---------- ---------- ---------- ----------
1                0.011      0.1        0.05       0.05       75         OUTLET    
2                0.011      0.1        0.05       0.05       75         OUTLET    
3                0.011      0.1        0.05       0.05       75         OUTLET    
4                0.011      0.1        0.05       0.05       75         OUTLET    
5                0.011      0.1        0.05       0.05       75         OUTLET    
6                0.011      0.1        0.05       0.05       75         OUTLET    
7                0.011      0.1        0.05       0.05       75         OUTLET    
8                0.011      0.1        0.05       0.05       75         OUTLET    
9                0.011      0.1        0.05       0.05       75         OUTLET    
10               0.011      0.1        0.05       0.05       75         OUTLET    
11               0.011      0.1        0.05       0.05       75         OUTLET    
13               0.011      0.1        0.05       0.05       75         OUTLET    
14               0.011      0.1        0.05       0.05       75         OUTLET    
16               0.011      0.1        0.05       0.05       75         OUTLET    
17               0.011      0.1        0.05       0.05       75         OUTLET    
18               0.011      0.1        0.05       0.05       75         OUTLET    
19               0.011      0.1        0.05       0.05       75         OUTLET    
20               0.011      0.1        0.05       0.05       75         OUTLET    
21               0.011      0.1        0.05       0.05       75         OUTLET    
22               0.011      0.1        0.05       0.05       75         OUTLET    
23               0.011      0.1        0.05       0.05       75         OUTLET    
24               0.011      0.1        0.05       0.05       75         OUTLET    
25               0.011      0.1        0.05       0.05       75         OUTLET    
26               0.011      0.1        0.05       0.05       75         OUTLET    
27               0.011      0.1        0.05       0.05       75         OUTLET    
28               0.011      0.1        0.05       0.05       75         OUTLET    
29               0.011      0.1        0.05       0.05       75         OUTLET    
30               0.011      0.1        0.05       0.05       75         OUTLET    
31               0.011      0.1        0.05       0.05       75         OUTLET    
32               0.011      0.1        0.05       0.05       75         OUTLET    
33               0.011      0.1        0.05       0.05       75         OUTLET    
34               0.011      0.1        0.05       0.05       75         OUTLET    
35               0.011      0.1        0.05       0.05       75         OUTLET    
36               0.011      0.1        0.05       0.05       75         OUTLET    
37               0.011      0.1        0.05       0.05       75         OUTLET    
38               0.011      0.1        0.05       0.05       75         OUTLET    
39               0.011      0.1        0.05       0.05       75         OUTLET    
40               0.011      0.1        0.05       0.05       75         OUTLET    
41               0.011      0.1        0.05       0.05       75         OUTLET    
42               0.011      0.1        0.05       0.05       75         OUTLET    
43               0.011      0.1        0.05       0.05       75         OUTLET    
44               0.011      0.1        0.05       0.05       75         OUTLET    
45               0.011      0.1        0.05       0.05       75         OUTLET    
46               0.011      0.1        0.05       0.05       75         OUTLET    
47               0.011      0.1        0.05       0.05       75         OUTLET    
48               0.011      0.1        0.05       0.05       75         OUTLET    
49               0.011      0.1        0.05       0.05       75         OUTLET    
50               0.011      0.1        0.05       0.05       75         OUTLET    
51               0.011      0.1        0.05       0.05       75         OUTLET    
52               0.011      0.1        0.05       0.05       75         OUTLET    
53               0.011      0.1        0.05       0.05       75         OUTLET    
54               0.011      0.1        0.05       0.05       75         OUTLET    
55               0.011      0.1        0.05       0.05       75         OUTLET    
56               0.011      0.1        0.05       0.05       75         OUTLET    
57               0.011      0.1        0.05       0.05       75         OUTLET    
58               0.011      0.1        0.05       0.05       75         OUTLET    
59               0.011      0.1        0.05       0.05       75         OUTLET    
60               0.011      0.1        0.05       0.05       75         OUTLET    
61               0.011      0.1        0.05       0.05       75         OUTLET    
62               0.011      0.1        0.05       0.05       75         OUTLET    
63               0.011      0.1        0.05       0.05       75         OUTLET    
64               0.011      0.1        0.05       0.05       75         OUTLET    
65               0.011      0.1        0.05       0.05       75         OUTLET    

[INFILTRATION]
;;Subcatchment   Suction    Ksat       IMD       
;;-------------- ---------- ---------- ----------
1                3.0        0.5        4         
2                3.0        0.5        4         
3                3.0        0.5        4         
4                3.0        0.5        4         
5                3.0        0.5        4         
6                3.0        0.5        4         
7                50         2.2        4         
8                3.0        0.5        4         
9                3.0        0.5        4         
10               3.0        0.5        4         
11               3.0        0.5        4         
13               3.0        0.5        4         
14               3.0        0.5        4         
16               3.0        0.5        4         
17               3.0        0.5        4         
18               3.0        0.5        4         
19               3.0        0.5        4         
20               3.0        0.5        4         
21               3.0        0.5        4         
22               3.0        0.5        4         
23               3.0        0.5        4         
24               3.0        0.5        4         
25               3.0        0.5        4         
26               3.0        0.5        4         
27               3.0        0.5        4         
28               3.0        0.5        4         
29               3.0        0.5        4         
30               3.0        0.5        4         
31               3.0        0.5        4         
32               3.0        0.5        4         
33               3.0        0.5        4         
34               3.0        0.5        4         
35               3.0        0.5        4         
36               3.0        0.5        4         
37               3.0        0.5        4         
38               3.0        0.5        4         
39               3.0        0.5        4         
40               3.0        0.5        4         
41               3.0        0.5        4         
42               3.0        0.5        4         
43               3.0        0.5        4         
44               3.0        0.5        4         
45               3.0        0.5        4         
46               3.0        0.5        4         
47               3.0        0.5        4         
48               3.0        0.5        4         
49               3.0        0.5        4         
50               3.0        0.5        4         
51               3.0        0.5        4         
52               3.0        0.5        4         
53               3.0        0.5        4         
54               3.0        0.5        4         
55               3.0        0.5        4         
56               3.0        0.5        4         
57               3.0        0.5        4         
58               3.0        0.5        4         
59               3.0        0.5        4         
60               3.0        0.5        4         
61               3.0        0.5        4         
62               3.0        0.5        4         
63               3.0        0.5        4         
64               3.0        0.5        4         
65               3.0        0.5        4         

[JUNCTIONS]
;;Name           Elevation  MaxDepth   InitDepth  SurDepth   Aponded   
;;-------------- ---------- ---------- ---------- ---------- ----------
WS01000070       0          0          0          0          10        
WS01000323       0          0          0          0          10        
WS01000533       6.86       2.147      0          0          10        
WS01005172       0          0          0          0          10        
WS01005181       0          0          0          0          10        
WS01009841       0          0          0          0          10        
WS02000078       0          0          0          0          10        
WS02000112       0          0          0          0          10        
WS02000136       0          0          0          0          10        
WS02001211       4.84       3.948      0          0          10        
WS02001212       4.8        4.264      0          0          10        
WS02001213       4.7        4.362      0          0          10        
WS02003059       4.65       4.717      0          0          10        
WS02003060       4.55       4.432      0          0          10        
WS02003066       5.3        4.614      0          0          10        
WS02003067       5.32       4.22       0          0          10        
WS02003071       4.4        4.757      0          0          10        
WS02003072       4.37       4.971      0          0          10        
WS02003073       4.24       5.275      0          0          10        
WS02003076       4.23       5.447      0          0          10        
WS02003077       5.01       4.722      0          0          10        
WS02003078       6.9        2.722      0          0          10        
WS02003079       6.91       2.355      0          0          10        
WS02003080       5.03       4.736      0          0          10        
WS02003081       5.04       4.614      0          0          10        
WS02003082       5.08       4.632      0          0          10        
WS02003083       5.09       4.073      0          0          10        
WS02003084       5.1        5.179      0          0          10        
WS02003085       5.17       4.342      0          0          10        
WS02003086       5.2        4.373      0          0          10        
WS02003087       5.22       4.305      0          0          10        
WS02003088       5.29       4.14       0          0          10        
WS02003089       5.46       4.343      0          0          10        
WS02003090       5.47       4.433      0          0          10        
WS02003091       5.8        4.427      0          0          10        
WS02003092       7.64       2.539      0          0          10        
WS02003093       7.34       2.377      0          0          10        
WS02003094       7.22       2.265      0          0          10        
WS02003098       7.17       2.286      0          0          10        
WS02003099       7.04       2.468      0          0          11        
WS02003102       7.03       2.442      0          0          10        
WS02003103       6.97       2.547      0          0          10        
WS02003104       6.96       2.496      0          0          10        
WS02003106       6.93       2.543      0          0          10        
WS02003110       7.25       2.544      0          0          10        
WS02003111       7.09       2.388      0          0          10        
WS02003115       6.9        2.724      0          0          10        
WS02003116       6.71       3.031      0          0          10        
WS02003118       6.62       3.164      0          0          10        
WS02003122       6.37       3.281      0          0          10        
WS02003123       6.44       2.885      0          0          10        
WS02003126       6.52       2.48       0          0          10        
WS02003187       6.33       3.11       0          0          10        
WS02003188       6.26       2.968      0          0          10        
WS02003190       6.25       2.816      0          0          10        
WS02003193       6.24       2.849      0          0          10        
WS02003195       6.22       2.933      0          0          10        
WS02003196       6.18       3.31       0          0          10        
WS02003198       6.17       3.884      0          0          10        
WS02003200       6.16       3.573      0          0          10        
WS02003201       6.14       3.217      0          0          10        
WS02003202       6.06       4.173      0          0          10        
WS02003203       6          3.824      0          0          10        
WS02003215       6.86       2.802      0          0          10        
WS02004050       4.22       5.271      0          0          10        
WS02004053       0          0          0          0          10        
WS02004136       6.73       0          0          265        10        
WS02004139       4.96       3.83       0          0          10        
WS02004401       6          2.66       0          0          10        
WS02004402       5.96       2.74       0          0          12        
WS02004403       5.93       3.03       0          0          12        
WS02004404       5.85       3.78       0          0          10        
WS02004405       5.84       3.8        0          0          11        
WS02004406       5.83       3.45       0          0          12        
WS02004407       5.8        3.343      0          0          13        
WS02004409       5.77       3.36       0          0          12        
WS02004410       5.72       3.54       0          0          12        
WS02004411       5.68       3.53       0          0          12        
WS02004412       5.64       3.31       0          0          12        
WS02004413       5.47       3.2        0          0          11        
WS02004997       1.61       6.9        0          0          10        
;1					10
WS02005122       9.52       2.298      0          0          10        
WS02005123       9.46       2.211      0          0          10        
WS02005124       9.27       2.252      0          0          10        
WS02005126       9.1        2.121      0          0          10        
WS02005127       9.03       1.973      0          0          10        
WS02005129       8.93       1.859      0          0          10        
WS02005131       8.76       1.754      0          0          11        
WS02005132       8.64       1.828      0          0          10        
WS02005133       8.61       1.97       0          0          10        
WS02005135       8.56       2.275      0          0          10        
WS02005137       8.42       2.578      0          0          10        
WS02005138       8.35       2.924      0          0          10        
WS02005140       8.32       3.001      0          0          10        
WS02005142       8.16       3.115      0          0          10        
WS02005144       8.05       3.189      0          0          11        
WS02005145       7.9        3.21       0          0          10        
WS02005147       7.87       2.998      0          0          11        
WS02005152       7.72       2.851      0          0          10        
WS02005154       7.64       2.664      0          0          10        
;2					10
WS02005155       7.31       2.659      0          0          10        
WS02005162       8          3.426      0          0          10        
WS02005163       8.04       3.496      0          0          10        
WS02005164       8.08       3.497      0          0          10        
WS02005165       8.18       3.522      0          0          10        
WS02005166       8.27       3.566      0          0          10        
WS02005167       8.3        3.563      0          0          10        
WS02005170       8.4        3.597      0          0          10        
WS02005171       8.47       3.604      0          0          10        
WS02005175       8.57       3.402      0          0          10        
WS02005176       8.62       3.331      0          0          10        
WS02005180       8.65       3.33       0          0          10        
WS02005181       8.7        3.334      0          0          10        
WS02005183       8.86       3.243      0          0          10        
WS02005184       8.91       3.189      0          0          10        
WS02005185       9.02       3.061      0          0          10        
WS02005186       9.11       2.962      0          0          11        
WS02005188       7.94       3.477      0          0          10        
WS02005191       7.9        3.549      0          0          10        
WS02005192       7.87       3.419      0          0          10        
WS02005193       7.82       3.217      0          0          10        
WS02005196       7.85       3.306      0          0          10        
WS02006109       6.62       2.638      0          0          10        
WS02006110       6.6        2.645      0          0          10        
WS02006111       6.58       2.677      0          0          11        
WS02006112       6.12       2.683      0          0          12        
WS02006113       6.59       2.733      0          0          10        
WS02006115       6.1        3.299      0          0          10        
WS02006116       6.04       3.35       0          0          10        
WS02006183       0          0          0          0          10        
WS02006228       6.65       3.031      0          0          10        
WS02006229       6.69       3.254      0          0          10        
WS02006230       6.75       2.645      0          0          10        
WS02006231       6.9        2.243      0          0          10        
WS02006232       7.03       2.189      0          0          10        
WS02006234       7.16       1.957      0          0          10        
WS02006235       7.17       1.994      0          0          11        
WS02006238       7.18       2.134      0          0          10        
WS02006239       7.21       2.029      0          0          10        
WS02006242       7.3        1.549      0          0          10        
WS02006240       7.29       2.103      0          0          10        
WS02006243       7.42       1.48       0          0          11        
WS02006245       7.49       1.555      0          0          10        
WS02006247       7.51       1.46       0          0          10        
WS02006248       7.59       1.077      0          0          10        
WS02006249       7.6        1.088      0          0          10        
WS02006251       7.67       2.21       0          0          10        
WS02006253       7.8        3.154      0          0          10        
WS02618401       0          0          0          0          10        
WS8802           4.38       4.942      0          0          10        
WSA1649          0          0          0          0          10        
WSF200           5.1        4.4828     0          0          11        
XR-Inflow        1.81       6.55       0          0          10        
WS02004114       1.6        7.415      0          0          10        

[OUTFALLS]
;;Name           Elevation  Type       Stage Data       Gated    Route To        
;;-------------- ---------- ---------- ---------------- -------- ----------------
outfall-24       5.5        FREE                        NO                       
outfall-2        7          FREE                        NO                       
outfall-5        7.667      FREE                        NO                       
outfall-8        8          FREE                        NO                       
outfall-14       7.66       FREE                        NO                       
outfall-16       8.395      FREE                        NO                       
outfall-17       8.153      FREE                        NO                       
outfall-27       7.9        FREE                        NO                       
outfall-28       7.3        FREE                        NO                       
67               10.2       FREE                        NO                       
12               0          FREE                        NO                       

[STORAGE]
;;Name           Elev.    MaxDepth   InitDepth  Shape      Curve Name/Params            N/A      Fevap    Psi      Ksat     IMD     