[TITLE]
;;Project Title/Notes

[OPTIONS]
;;Option             Value
FLOW_UNITS           MLD
INFILTRATION         GREEN_AMPT
FLOW_ROUTING         DYNWAVE
LINK_OFFSETS         DEPTH
MIN_SLOPE            0
ALLOW_PONDING        NO
SKIP_STEADY_STATE    NO

START_DATE           08/28/2015
START_TIME           08:00
REPORT_START_DATE    08/28/2015
REPORT_START_TIME    08:00
END_DATE             08/28/2015
END_TIME             11:50
SWEEP_START          01/01
SWEEP_END            12/31
DRY_DAYS             4
REPORT_STEP          00:01:00
WET_STEP             00:01:00
DRY_STEP             00:01:00
ROUTING_STEP         0:00:05 

INERTIAL_DAMPING     PARTIAL
NORMAL_FLOW_LIMITED  BOTH
FORCE_MAIN_EQUATION  H-W
VARIABLE_STEP        0.75
LENGTHENING_STEP     0
MIN_SURFAREA         1.14
MAX_TRIALS           8
HEAD_TOLERANCE       0.0015
SYS_FLOW_TOL         5
LAT_FLOW_TOL         5
MINIMUM_STEP         0.5
THREADS              1

[EVAPORATION]
;;Data Source    Parameters
;;-------------- ----------------
CONSTANT         0.0
DRY_ONLY         NO

[RAINGAGES]
;;Name           Format    Interval SCF      Source    
;;-------------- --------- ------ ------ ----------
rainfall         INTENSITY 0:01     0        TIMESERIES Oneyear-2h      

[SUBCATCHMENTS]
;;Name           Rain Gage        Outlet           Area     %Imperv  Width    %Slope   CurbLen  SnowPack        
;;-------------- ---------------- ---------------- -------- -------- -------- -------- -------- ----------------
1                rainfall         WS02006247       1.21     25       27.5     0.5      0                        
2                rainfall         WS02006232       3.37     25       45.89389938 0.5      0                        
3                rainfall         WS02006113       5.1      25       56.45794895 0.5      0                        
35               rainfall         36               3.03     25       43.51723798 0.5      0                        
36               rainfall         44               5.9      25       60.724789 0.5      0                        
40               rainfall         36               3.91     25       49.43429983 0.5      0                        
41               rainfall         40               1.94     25       34.8209707 0.5      0                        
42               rainfall         56               2.28     25       37.74917218 0.5      0                        
43               rainfall         44               0.36     25       15       0.5      0                        
44               rainfall         WS02006228       0.37     25       15.20690633 0.5      0                        
45               rainfall         46               1.03     25       25.37222893 0.5      0                        
46               rainfall         36               2.14     25       36.5718471 0.5      0                        
47               rainfall         48               1.11     25       26.33913438 0.5      0                        
48               rainfall         46               1.58     25       31.42451273 0.5      0                        
55               rainfall         WS02006251       0.83     25       22.77608395 0.5      0                        
56               rainfall         1                2.14     25       36.5718471 0.5      0                        
57               rainfall         WS02005192       5        25       55.90169943 0.5      0                        
59               rainfall         55               0.84     25       22.91287848 0.5      0                        
60               rainfall         56               0.52     25       18.02775638 0.5      0                        
61               rainfall         CC-storage       18       25       106.0660172 0.5      0                        
64               rainfall         60               1.2      25       27.38612788 0.5      0                        

[SUBAREAS]
;;Subcatchment   N-Imperv   N-Perv     S-Imperv   S-Perv     PctZero    RouteTo    PctRouted 
;;-------------- ---------- ---------- ---------- ---------- ---------- ---------- ----------
1                0.011      0.1        0.05       0.05       75         OUTLET    
2                0.011      0.1        0.05       0.05       75         OUTLET    
3                0.011      0.1        0.05       0.05       75         OUTLET    
35               0.011      0.1        0.05       0.05       75         OUTLET    
36               0.011      0.1        0.05       0.05       75         OUTLET    
40               0.011      0.1        0.05       0.05       75         OUTLET    
41               0.011      0.1        0.05       0.05       75         OUTLET    
42               0.011      0.1        0.05       0.05       75         OUTLET    
43               0.011      0.1        0.05       0.05       75         OUTLET    
44               0.011      0.1        0.05       0.05       75         OUTLET    
45               0.011      0.1        0.05       0.05       75         OUTLET    
46               0.011      0.1        0.05       0.05       75         OUTLET    
47               0.011      0.1        0.05       0.05       75         OUTLET    
48               0.011      0.1        0.05       0.05       75         OUTLET    
55               0.011      0.1        0.05       0.05       75         OUTLET    
56               0.011      0.1        0.05       0.05       75         OUTLET    
57               0.011      0.1        0.05       0.05       75         OUTLET    
59               0.011      0.1        0.05       0.05       75         OUTLET    
60               0.011      0.1        0.05       0.05       75         OUTLET    
61               0.011      0.1        0.05       0.05       75         OUTLET    
64               0.011      0.1        0.05       0.05       75         OUTLET    

[INFILTRATION]
;;Subcatchment   Suction    Ksat       IMD       
;;-------------- ---------- ---------- ----------
1                3.0        0.5        4         
2                3.0        0.5        4         
3                3.0        0.5        4         
35               3.0        0.5        4         
36               3.0        0.5        4         
40               3.0        0.5        4         
41               3.0        0.5        4         
42               3.0        0.5        4         
43               3.0        0.5        4         
44               3.0        0.5        4         
45               3.0        0.5        4         
46               3.0        0.5        4         
47               3.0        0.5        4         
48               3.0        0.5        4         
55               3.0        0.5        4         
56               3.0        0.5        4         
57               3.0        0.5        4         
59               3.0        0.5        4         
60               3.0        0.5        4         
61               3.0        0.5        4         
64               3.0        0.5        4         

[JUNCTIONS]
;;Name           Elevation  MaxDepth   InitDepth  SurDepth   Aponded   
;;-------------- ---------- ---------- ---------- ---------- ----------
WS01000070       0          0          0          0          10        
WS01000323       0          0          0          0          10        
WS01000533       6.86       2.147      0          0          10        
WS01005172       0          0          0          0          10        
WS01005181       0          0          0          0          10        
WS01009841       0          0          0          0          10        
WS02000078       0          0          0          0          10        
WS02000112       0          0          0          0          10        
WS02000136       0          0          0          0          10        
WS02004053       0          0          0          0          10        
WS02004401       6          2.66       0          0          10        
WS02005192       7.87       3.419      0          0          10        
WS02005193       7.82       3.217      0          0          10        
WS02005196       7.85       3.306      0          0          10        
WS02006109       6.62       2.638      0          0          10        
WS02006110       6.6        2.645      0          0          10        
WS02006111       6.58       2.677      0          0          11        
WS02006112       6.12       2.683      0          0          12        
WS02006113       6.59       2.733      0          0          10        
WS02006115       6.1        3.299      0          0          10        
WS02006116       6.04       3.35       0          0          10        
WS02006183       0          0          0          0          10        
WS02006228       6.65       3.031      0          0          10        
WS02006229       6.69       3.254      0          0          10        
WS02006230       6.75       2.645      0          0          10        
WS02006231       6.9        2.243      0          0          10        
WS02006232       7.03       2.189      0          0          10        
WS02006234       7.16       1.957      0          0          10        
WS02006235       7.17       1.994      0          0          11        
WS02006238       7.18       2.134      0          0          10        
WS02006239       7.21       2.029      0          0          10        
WS02006242       7.3        1.549      0          0          10        
WS02006240       7.29       2.103      0          0          10        
WS02006243       7.42       1.48       0          0          11        
WS02006245       7.49       1.555      0          0          10        
WS02006247       7.51       1.46       0          0          10        
WS02006248       7.59       1.077      0          0          10        
WS02006249       7.6        1.088      0          0          10        
WS02006251       7.67       2.21       0          0          10        
WS02006253       7.8        3.154      0          0          10        
WS02618401       0          0          0          0          10        
WSA1649          0          0          0          0          10        

[OUTFALLS]
;;Name           Elevation  Type       Stage Data       Gated    Route To        
;;-------------- ---------- ---------- ---------------- -------- ----------------
outfall-5        7.667      FREE                        NO                       
outfall-14       7.66       FREE                        NO                       
outfall-16       8.395      FREE                        NO                       

[STORAGE]
;;Name           Elev.    MaxDepth   InitDepth  Shape      Curve Name/Params            N/A      Fevap    Psi      Ksat     IMD     
;;-------------- -------- ---------- ----------- ---------- ---------------------------- -------- --------          -------- --------
CC-storage       3.18     5.63       0          TABULAR    CC-curve                     0        0       

[CONDUITS]
;;Name           From Node        To Node          Length     Roughness  InOffset   OutOffset  InitFlow   MaxFlow   
;;-------------- ---------------- ---------------- ---------- ---------- ---------- ---------- ---------- ----------
WSL2038          WS02005192       WS02005196       23.58459881 0.01       0          0          0          0         
WSL2039          WS02005193       WS02006253       25.16447577 0.01       0          0          0          0         
WSL2041          WS02005196       WS02005193       34.36744019 0.01       0          0          0          0         
WSL2294          WS02006109       WS02006110       49.78419143 0.01       0          0          0          0         
WSL2295          WS02006110       WS02006113       44.58819505 0.01       0          0          0          0         
WSL2296          WS02006111       WS02006112       32.18987832 0.01       0          0          0          0         
WSL2297          WS02006112       WS02006115       53.28177986 0.01       0          0          0          0         
WSL2298          WS02006113       WS02006111       46.74159027 0.01       0          0          0          0         
WSL2301          WS02006115       WS02006116       36.9321561 0.01       0          0          0          0         
WSL2302          WS02006116       WS02004401       43.69167106 0.01       0          0          0          0         
WSL2441          WS02006228       WS02006109       43.40027099 0.01       0          0          0          0         
WSL2442          WS02006230       WS02006229       42.49073354 0.01       0          0          0          0         
WSL2443          WS02006231       WS02006230       39.48257333 0.01       0          0          0          0         
WSL2444          WS02006232       WS02006231       35.41112416 0.01       0          0          0          0         
WSL2446          WS02006234       WS02006232       41.42669942 0.01       0          0          0          0         
WSL2447          WS02006235       WS02006234       28.65472263 0.01       0          0          0          0         
WSL2448          WS02006238       WS02006235       8.554294652 0.01       0          0          0          0         
WSL2449          WS02006239       WS02006238       39.53012444 0.01       0          0          0          0         
WSL2450          WS02006240       WS02006239       37.38474466 0.01       0          0          0          0         
WSL2451          WS02006242       WS02006240       46.01374822 0.01       0          0          0          0         
WSL2452          WS02006243       WS02006242       47.39238294 0.01       0          0          0          0         
WSL2454          WS02006245       WS02006243       41.27610524 0.01       0          0          0          0         
WSL2478          WS02006247       WS02006245       26.96662352 0.01       0          0          0          0         
WSL2479          WS02006248       WS02006247       31.30249053 0.01       0          0          0          0         
WSL2480          WS02006249       WS02006248       23.16515238 0.01       0          0          0          0         
WSL2482          WS02006251       WS02006249       51.35594132 0.01       0          0          0          0         
WSL2484          WS02006253       WS02006251       27.92915153 0.01       0          0          0          0         
WSL2493          WS02006229       WS02006228       24.94448945 0.01       0          0          0          0         
8                WS02006248       outfall-5        5          0.01       0.6        0          0          0         
19               WS02006230       outfall-16       5          0.01       2.2        0          0          0         
17               WS02004401       outfall-14       5          0.01       2.2        0          0          0         

[PUMPS]
;;Name           From Node        To Node          Pump Curve       Status   Sartup Shutoff 
;;-------------- ---------------- ---------------- ---------------- ------ -------- --------
CC-Pump-1        CC-storage       WS02006253       CC-Pumpcurve     OFF      6.02     5.9     
CC-Pump-2        CC-storage       WS02006253       CC-Pumpcurve     OFF      7.08     6.02    

[XSECTIONS]
;;Link           Shape        Geom1            Geom2      Geom3      Geom4      Barrels    Culvert   
;;-------------- ------------ ---------------- ---------- ---------- ---------- ---------- ----------
WSL2038          CIRCULAR     0.6              0          0          0          1                    
WSL2039          CIRCULAR     0.6              0          0          0          1                    
WSL2041          CIRCULAR     0.6              0          0          0          1                    
WSL2294          CIRCULAR     0.8              0          0          0          1                    
WSL2295          CIRCULAR     0.8              0          0          0          1                    
WSL2296          CIRCULAR     0.8              0          0          0          1                    
WSL2297          CIRCULAR     1                0          0          0          1                    
WSL2298          CIRCULAR     0.8              0          0          0          1                    
WSL2301          CIRCULAR     1                0          0          0          1                    
WSL2302          CIRCULAR     1                0          0          0          1                    
WSL2441          CIRCULAR     0.8              0          0          0          1                    
WSL2442          CIRCULAR     0.7              0          0          0          1                    
WSL2443          CIRCULAR     0.7              0          0          0          1                    
WSL2444          CIRCULAR     0.7              0          0          0          1                    
WSL2446          CIRCULAR     0.7              0          0          0          1                    
WSL2447          CIRCULAR     0.7              0          0          0          1                    
WSL2448          CIRCULAR     0.7              0          0          0          1                    
WSL2449          CIRCULAR     0.7              0          0          0          1                    
WSL2450          CIRCULAR     0.7              0          0          0          1                    
WSL2451          CIRCULAR     0.7              0          0          0          1                    
WSL2452          CIRCULAR     0.7              0          0          0          1                    
WSL2454          CIRCULAR     0.7              0          0          0          1                    
WSL2478          CIRCULAR     0.7              0          0          0          1                    
WSL2479          CIRCULAR     0.7              0          0          0          1                    
WSL2480          CIRCULAR     0.7              0          0          0          1                    
WSL2482          CIRCULAR     0.7              0          0          0          1                    
WSL2484          CIRCULAR     0.7              0          0          0          1                    
WSL2493          CIRCULAR     0.8              0          0          0          1                    
8                CIRCULAR     0.4              0          0          0          1                    
19               CIRCULAR     0.4              0          0          0          1                    
17               CIRCULAR     0.4              0          0          0          1                    

[CONTROLS]






[POLLUTANTS]
;;Name           Units  Crain      Cgw        Crdii      Kdecay     SnowOnly   Co-Pollutant     Co-Frac    Cdwf       Cinit     
;;-------------- ------ ---------- ---------- ---------- ---------- ---------- ---------------- ---------- ---------- ----------
COD              MG/L   0.0        0.0        167        0.0        NO         *                0.0        0          0.0       
NH3-N            MG/L   0.0        0.0        0.0        0.0        NO         *                0.0        0          0.0       
TN               MG/L   0.0        0.0        0.0        0.0        NO         *                0.0        0          0.0       
TP               MG/L   0.0        0.0        0.0        0.0        NO         *                0.0        0          0.0       
SS               MG/L   0.0        0.0        0.0        0.0        NO         *                0.0        0          0.0       

[LANDUSES]
;;               Sweeping   Fraction   Last      
;;Name           Interval   Available  Swept     
;;-------------- ---------- ---------- ----------
roof             0          0          0         
green            0          0          0         
road             0          0          1         

[COVERAGES]
;;Subcatchment   Land Use         Percent   
;;-------------- ---------------- ----------
35               roof             30        
35               green            20        
35               road             50        
36               roof             30        
36               green            20        
36               road             50        
40               roof             30        
40               green            20        
40               road             50        
41               roof             30        
41               green            20        
41               road             50        
42               roof             30        
42               green            20        
42               road             50        
43               roof             30        
43               green            20        
43               road             50        
44               roof             30        
44               green            20        
44               road             50        
45               roof             30        
45               green            20        
45               road             50        
46               roof             30        
46               green            20        
46               road             50        
47               roof             30        
47               green            20        
47               road             50        
48               roof             30        
48               green            20        
48               road             50        
55               roof             30        
55               green            20        
55               road             50        
56               roof             30        
56               green            20        
56               road             50        
57               roof             30        
57               green            20        
57               road             50        
59               roof             30        
59               green            20        
59               road             50        
60               roof             30        
60               green            20        
60               road             50        
61               roof             30        
61               green            20        
61               road             50        
64               roof             30        
64               green            20        
64               road             50        

[LOADINGS]
;;Subcatchment   Pollutant        Buildup   
;;-------------- ---------------- ----------

[BUILDUP]
;;Land Use       Pollutant        Function   Coeff1     Coeff2     Coeff3     Per Unit  
;;-------------- ---------------- ---------- ---------- ---------- ---------- ----------
roof             COD              SAT        120        0          10         AREA      
roof             NH3-N            NONE       0.0        0.0        0.0        AREA      
roof             TN               NONE       0.0        0.0        0.0        AREA      
roof             TP               NONE       0.0        0.0        0.0        AREA      
roof             SS               NONE       0.0        0.0        0.0        AREA      
green            COD              SAT        60         0          10         AREA      
green            NH3-N            NONE       0.0        0.0        0.0        AREA      
green            TN               NONE       0.0        0.0        0.0        AREA      
green            TP               NONE       0.0        0.0        0.0        AREA      
green            SS               NONE       0.0        0.0        0.0        AREA      
road             COD              SAT        240        0          10         AREA      
road             NH3-N            NONE       0.0        0.0        0.0        AREA      
road             TN               NONE       0.0        0.0        0.0        AREA      
road             TP               NONE       0.0        0.0        0.0        AREA      
road             SS               NONE       0.0        0.0        0.0        AREA      

[WASHOFF]
;;Land Use       Pollutant        Function   Coeff1     Coeff2     SweepRmvl  BmpRmvl   
;;-------------- ---------------- ---------- ---------- ---------- ---------- ----------
roof             COD              EXP        0.012      1.8        0          0.0       
roof             NH3-N            EMC        0.0        0.0        0.0        0.0       
roof             TN               EMC        0.0        0.0        0.0        0.0       
roof             TP               EMC        0.0        0.0        0.0        0.0       
roof             SS               EMC        0.0        0.0        0.0        0.0       
green            COD              EXP        0.01       1.5        0          0.0       
green            NH3-N            EMC        0.0        0.0        0.0        0.0       
green            TN               EMC        0.0        0.0        0.0        0.0       
green            TP               EMC        0.0        0.0        0.0        0.0       
green            SS               EMC        0.0        0.0        0.0        0.0       
road             COD              EXP        0.015      2          0.7        0.0       
road             NH3-N            EMC        0.0        0.0        0.0        0.0       
road             TN               EMC        0.0        0.0        0.0        0.0       
road             TP               EMC        0.0        0.0        0.0        0.0       
road             SS               EMC        0.0        0.0        0.0        0.0       

[INFLOWS]
;;Node           Constituent      Time Series      Type     Mfactor  Sfactor  Baseline Pattern
;;-------------- ---------------- ---------------- -------- -------- -------- -------- --------
WS02004401       FLOW             groundwateraver  FLOW     1.0      1.260192 0.0160688 time-rate
WS02004401       COD              ""               CONCEN   1        1        167      CODcurve
WS02005192       FLOW             groundwateraver  FLOW     1.0      0.25023158 1.7134640 time-rate
WS02005192       COD              ""               CONCEN   1        1        167      CODcurve
WS02005193       FLOW             groundwateraver  FLOW     1.0      1.1732   0.6910181 time-rate
WS02005193       COD              ""               CONCEN   1        1        167      CODcurve
WS02005196       FLOW             groundwateraver  FLOW     1.0      1.1732   1.1735485 time-rate
WS02005196       COD              ""               CONCEN   1        1        167      CODcurve
WS02006109       FLOW             groundwateraver  FLOW     1.0      1.260192 0.5046441 time-rate
WS02006109       COD              ""               CONCEN   1        1        167      CODcurve
WS02006110       FLOW             groundwateraver  FLOW     1.0      1.260192 0.4718062 time-rate
WS02006110       COD              ""               CONCEN   1        1        167      CODcurve
WS02006111       FLOW             groundwateraver  FLOW     1.0      1.260192 3.0141973 time-rate
WS02006111       COD              ""               CONCEN   1        1        167      CODcurve
WS02006112       FLOW             groundwateraver  FLOW     1.0      1.260192 2.0100767 time-rate
WS02006112       COD              ""               CONCEN   1        1        167      CODcurve
WS02006113       FLOW             groundwateraver  FLOW     1.0      1.260192 1.9065938 time-rate
WS02006113       COD              ""               CONCEN   1        1        167      CODcurve
WS02006115       FLOW             groundwateraver  FLOW     1.0      1.260192 0.5026185 time-rate
WS02006115       COD              ""               CONCEN   1        1        167      CODcurve
WS02006116       FLOW             groundwateraver  FLOW     1.0      1.260192 2.9578133 time-rate
WS02006116       COD              ""               CONCEN   1        1        167      CODcurve
WS02006228       FLOW             groundwateraver  FLOW     1.0      1.260192 2.1569236 time-rate
WS02006228       COD              ""               CONCEN   1        1        167      CODcurve
WS02006229       FLOW             groundwateraver  FLOW     1.0      1.260192 1.2168977 time-rate
WS02006229       COD              ""               CONCEN   1        1        167      CODcurve
WS02006230       FLOW             groundwateraver  FLOW     1.0      1.1732   0.3678044 time-rate
WS02006230       COD              ""               CONCEN   1        1        167      CODcurve
WS02006231       FLOW             groundwateraver  FLOW     1.0      1.1732   1.3366334 time-rate
WS02006231       COD              ""               CONCEN   1        1        167      CODcurve
WS02006232       FLOW             groundwateraver  FLOW     1.0      1.1732   0.5838982 time-rate
WS02006232       COD              ""               CONCEN   1        1        167      CODcurve
WS02006234       FLOW             groundwateraver  FLOW     1.0      1.1732   1.4523093 time-rate
WS02006234       COD              ""               CONCEN   1        1        167      CODcurve
WS02006235       FLOW             groundwateraver  FLOW     1.0      1.1732   1.5303235 time-rate
WS02006235       COD              ""               CONCEN   1        1        167      CODcurve
WS02006238       FLOW             groundwateraver  FLOW     1.0      1.1732   1.6611867 time-rate
WS02006238       COD              ""               CONCEN   1        1        167      CODcurve
WS02006239       FLOW             groundwateraver  FLOW     1.0      1.1732   1.0003771 time-rate
WS02006239       COD              ""               CONCEN   1        1        167      CODcurve
WS02006242       FLOW             groundwateraver  FLOW     1.0      1.1732   0.5084177 time-rate
WS02006242       COD              ""               CONCEN   1        1        167      CODcurve
WS02006240       FLOW             groundwateraver  FLOW     1.0      1.1732   0.1861160 time-rate