[TITLE]
;;Project Title/Notes

[OPTIONS]
;;Option             Value
FLOW_UNITS           MLD
INFILTRATION         GREEN_AMPT
FLOW_ROUTING         DYNWAVE
LINK_OFFSETS         DEPTH
MIN_SLOPE            0
ALLOW_PONDING        NO
SKIP_STEADY_STATE    NO

START_DATE           08/28/2015
START_TIME           08:00:00
REPORT_START_DATE    08/28/2015
REPORT_START_TIME    08:00:00
END_DATE             08/28/2015
END_TIME             12:00:00
SWEEP_START          01/01
SWEEP_END            12/31
DRY_DAYS             4
REPORT_STEP          00:01:00
WET_STEP             00:01:00
DRY_STEP             00:01:00
ROUTING_STEP         0:00:05 

INERTIAL_DAMPING     PARTIAL
NORMAL_FLOW_LIMITED  BOTH
FORCE_MAIN_EQUATION  H-W
VARIABLE_STEP        0.75
LENGTHENING_STEP     0
MIN_SURFAREA         1.14
MAX_TRIALS           8
HEAD_TOLERANCE       0.0015
SYS_FLOW_TOL         5
LAT_FLOW_TOL         5
MINIMUM_STEP         0.5
THREADS              1

[EVAPORATION]
;;Data Source    Parameters
;;-------------- ----------------
CONSTANT         0.0
DRY_ONLY         NO

[RAINGAGES]
;;Name           Format    Interval SCF      Source    
;;-------------- --------- ------ ------ ----------
rainfall         INTENSITY 0:01     0        TIMESERIES Oneyear-2h      

[SUBCATCHMENTS]
;;Name           Rain Gage        Outlet           Area     %Imperv  Width    %Slope   CurbLen  SnowPack        
;;-------------- ---------------- ---------------- -------- -------- -------- -------- -------- ----------------
61               rainfall         CC-storage       18       25       106.0660172 0.5      0                        

[SUBAREAS]
;;Subcatchment   N-Imperv   N-Perv     S-Imperv   S-Perv     PctZero    RouteTo    PctRouted 
;;-------------- ---------- ---------- ---------- ---------- ---------- ---------- ----------
61               0.011      0.1        0.05       0.05       75         OUTLET    

[INFILTRATION]
;;Subcatchment   Suction    Ksat       IMD       
;;-------------- ---------- ---------- ----------
61               3.0        0.5        4         

[JUNCTIONS]
;;Name           Elevation  MaxDepth   InitDepth  SurDepth   Aponded   
;;-------------- ---------- ---------- ---------- ---------- ----------
WS02006248       7.59       1.077      0          0          10        
WS02006249       7.6        1.088      0          0          10        
WS02006251       7.67       2.21       0          0          10        
WS02006253       7.8        3.154      0          0          10        

[OUTFALLS]
;;Name           Elevation  Type       Stage Data       Gated    Route To        
;;-------------- ---------- ---------- ---------------- -------- ----------------
outfall-5        7.667      FREE                        NO                       
outfall-27       7.9        FREE                        NO                       

[STORAGE]
;;Name           Elev.    MaxDepth   InitDepth  Shape      Curve Name/Params            N/A      Fevap    Psi      Ksat     IMD     
;;-------------- -------- ---------- ----------- ---------- ---------------------------- -------- --------          -------- --------
CC-storage       3.18     5.63       0          TABULAR    CC-curve                     0        0       

[CONDUITS]
;;Name           From Node        To Node          Length     Roughness  InOffset   OutOffset  InitFlow   MaxFlow   
;;-------------- ---------------- ---------------- ---------- ---------- ---------- ---------- ---------- ----------
WSL2480          WS02006249       WS02006248       23.16515238 0.01       0          0          0          0         
WSL2482          WS02006251       WS02006249       51.35594132 0.01       0          0          0          0         
WSL2484          WS02006253       WS02006251       27.92915153 0.01       0          0          0          0         
8                WS02006248       outfall-5        5          0.01       0.6        0          0          0         
1                CC-storage       outfall-27       10         0.01       5.13       0          0          0         

[PUMPS]
;;Name           From Node        To Node          Pump Curve       Status   Sartup Shutoff 
;;-------------- ---------------- ---------------- ---------------- ------ -------- --------
CC-Pump-1        CC-storage       WS02006253       CC-Pumpcurve     OFF      3.02     0.9     

[XSECTIONS]
;;Link           Shape        Geom1            Geom2      Geom3      Geom4      Barrels    Culvert   
;;-------------- ------------ ---------------- ---------- ---------- ---------- ---------- ----------
WSL2480          CIRCULAR     0.7              0          0          0          1                    
WSL2482          CIRCULAR     0.7              0          0          0          1                    
WSL2484          CIRCULAR     0.7              0          0          0          1                    
8                CIRCULAR     0.4              0          0          0          1                    
1                CIRCULAR     0.4              0          0          0          1                    

[CONTROLS]








[POLLUTANTS]
;;Name           Units  Crain      Cgw        Crdii      Kdecay     SnowOnly   Co-Pollutant     Co-Frac    Cdwf       Cinit     
;;-------------- ------ ---------- ---------- ---------- ---------- ---------- ---------------- ---------- ---------- ----------
COD              MG/L   0.0        0.0        167        0.0        NO         *                0.0        0          0.0       
NH3-N            MG/L   0.0        0.0        0.0        0.0        NO         *                0.0        0          0.0       
TN               MG/L   0.0        0.0        0.0        0.0        NO         *                0.0        0          0.0       
TP               MG/L   0.0        0.0        0.0        0.0        NO         *                0.0        0          0.0       
SS               MG/L   0.0        0.0        0.0        0.0        NO         *                0.0        0          0.0       

[LANDUSES]
;;               Sweeping   Fraction   Last      
;;Name           Interval   Available  Swept     
;;-------------- ---------- ---------- ----------
roof             0          0          0         
green            0          0          0         
road             0          0          1         

[COVERAGES]
;;Subcatchment   Land Use         Percent   
;;-------------- ---------------- ----------
61               roof             30        
61               green            20        
61               road             50        

[LOADINGS]
;;Subcatchment   Pollutant        Buildup   
;;-------------- ---------------- ----------

[BUILDUP]
;;Land Use       Pollutant        Function   Coeff1     Coeff2     Coeff3     Per Unit  
;;-------------- ---------------- ---------- ---------- ---------- ---------- ----------
roof             COD              SAT        120        0          10         AREA      
roof             NH3-N            NONE       0.0        0.0        0.0        AREA      
roof             TN               NONE       0.0        0.0        0.0        AREA      
roof             TP               NONE       0.0        0.0        0.0        AREA      
roof             SS               NONE       0.0        0.0        0.0        AREA      
green            COD              SAT        60         0          10         AREA      
green            NH3-N            NONE       0.0        0.0        0.0        AREA      
green            TN               NONE       0.0        0.0        0.0        AREA      
green            TP               NONE       0.0        0.0        0.0        AREA      
green            SS               NONE       0.0        0.0        0.0        AREA      
road             COD              SAT        240        0          10         AREA      
road             NH3-N            NONE       0.0        0.0        0.0        AREA      
road             TN               NONE       0.0        0.0        0.0        AREA      
road             TP               NONE       0.0        0.0        0.0        AREA      
road             SS               NONE       0.0        0.0        0.0        AREA      

[WASHOFF]
;;Land Use       Pollutant        Function   Coeff1     Coeff2     SweepRmvl  BmpRmvl   
;;-------------- ---------------- ---------- ---------- ---------- ---------- ----------
roof             COD              EXP        0.012      1.8        0          0.0       
roof             NH3-N            EMC        0.0        0.0        0.0        0.0       
roof             TN               EMC        0.0        0.0        0.0        0.0       
roof             TP               EMC        0.0        0.0        0.0        0.0       
roof             SS               EMC        0.0        0.0        0.0        0.0       
green            COD              EXP        0.01       1.5        0          0.0       
green            NH3-N            EMC        0.0        0.0        0.0        0.0       
green            TN               EMC        0.0        0.0        0.0        0.0       
green            TP               EMC        0.0        0.0        0.0        0.0       
green            SS               EMC        0.0        0.0        0.0        0.0       
road             COD              EXP        0.015      2          0.7        0.0       
road             NH3-N            EMC        0.0        0.0        0.0        0.0       
road             TN               EMC        0.0        0.0        0.0        0.0       
road             TP               EMC        0.0        0.0        0.0        0.0       
road             SS               EMC        0.0        0.0        0.0        0.0       

[INFLOWS]
;;Node           Constituent      Time Series      Type     Mfactor  Sfactor  Baseline Pattern
;;-------------- ---------------- ---------------- -------- -------- -------- -------- --------
WS02006248       FLOW             groundwateraver  FLOW     1.0      1.1732   1.1953290 time-rate
WS02006248       COD              ""               CONCEN   1        1        167      CODcurve
WS02006249       FLOW             groundwateraver  FLOW     1.0      1.1732   2.2118054 time-rate
WS02006249       COD              ""               CONCEN   1        1        167      CODcurve
WS02006251       FLOW             groundwateraver  FLOW     1.0      1.1732   0.1735800 time-rate
WS02006251       COD              ""               CONCEN   1        1        167      CODcurve
WS02006253       FLOW             groundwateraver  FLOW     1.0      1.1732   0.9829174 time-rate
WS02006253       COD              ""               CONCEN   1        1        167      CODcurve
CC-storage       FLOW             ""               FLOW     1.0      1.0      31.2     time-rate
CC-storage       COD              ""               CONCEN   1.0      1.0      167      CODcurve

[CURVES]
;;Name           Type       X-Value    Y-Value   
;;-------------- ---------- ---------- ----------
XB-Pumpcurve     Pump2      0          11.4      
XB-Pumpcurve                5.34       11.4      
;
CC-Pumpcurve     Pump2      0          17.28     
CC-Pumpcurve                5.63       17.28     
;
JK-Pumpcurve     Pump2      0          17.28     
JK-Pumpcurve                5.63       17.28     
;
XR-Pumpcurve     Pump2      0          8.12      
XR-Pumpcurve                7.72       8.12      
;
JK-curve         Storage    0          28.26     
JK-curve                    4.8        28.26     
;
CC-curve         Storage    0          28.26     
CC-curve                    5.63       28.26     
;
XR-curve         Storage    0          8.12      
XR-curve                    7.72       8.12      
;
XB-curve         Storage    0          11.4      
XB-curve                    5.34       11.4      
;
End-curve        Storage    0          10800     
End-curve                   10         10800     

[TIMESERIES]
;;Name           Date       Time       Value     
;;-------------- ---------- ---------- ----------
groundwateraver  8/28/2015  00:00      0.042     
groundwateraver  8/28/2015  01:00      0.042     
groundwateraver  8/28/2015  02:00      0.042     
groundwateraver  8/28/2015  03:00      0.042     
groundwateraver  8/28/2015  04:00      0.042     
groundwateraver  8/28/2015  05:00      0.042     
groundwateraver  8/28/2015  06:00      0.042     
groundwateraver  8/28/2015  07:00      0.042     
groundwateraver  8/28/2015  08:00      0.042     
groundwateraver  8/28/2015  09:00      0.042     
groundwateraver  8/28/2015  10:00      0.042     
groundwateraver  8/28/2015  11:00      0.042     
groundwateraver  8/28/2015  12:00      0.042     
groundwateraver  8/28/2015  13:00      0.042     
groundwateraver  8/28/2015  14:00      0.042     
groundwateraver  8/28/2015  15:00      0.042     
groundwateraver  8/28/2015  16:00      0.042     
groundwateraver  8/28/2015  17:00      0.042     
groundwateraver  8/28/2015  18:00      0.042     
groundwateraver  8/28/2015  19:00      0.042     
groundwateraver  8/28/2015  20:00      0.042     
groundwateraver  8/28/2015  21:00      0.042     
groundwateraver  8/28/2015  22:00      0.042     
groundwateraver  8/28/2015  23:00      0.042     
groundwateraver  8/29/2015  00:00      0.042     
groundwateraver  8/29/2015  01:00      0.042     
groundwateraver  8/29/2015  02:00      0.042     
groundwateraver  8/29/2015  03:00      0.042     
groundwateraver  8/29/2015  04:00      0.042     
groundwateraver  8/29/2015  05:00      0.042     
groundwateraver  8/29/2015  06:00      0.042     
groundwateraver  8/29/2015  07:00      0.042     
groundwateraver  8/29/2015  08:00      0.042     
groundwateraver  8/29/2015  09:00      0.042     
groundwateraver  8/29/2015  10:00      0.042     
groundwateraver  8/29/2015  11:00      0.042     
groundwateraver  8/29/2015  12:00      0.042     
groundwateraver  8/29/2015  13:00      0.042     
groundwateraver  8/29/2015  14:00      0.042     
groundwateraver  8/29/2015  15:00      0.042     
groundwateraver  8/29/2015  16:00      0.042     
groundwateraver  8/29/2015  17:00      0.042     
groundwateraver  8/29/2015  18:00      0.042     
groundwateraver  8/29/2015  19:00      0.042     
groundwateraver  8/29/2015  20:00      0.042     
groundwateraver  8/29/2015  21:00      0.042     
groundwateraver  8/29/2015  22:00      0.042     
groundwateraver  8/29/2015  23:00      0.042     
;
Oneyear-2h        08/28/2015 09:01      17.618247022001118
Oneyear-2h        08/28/2015 09:02      17.658982907646426
Oneyear-2h        08/28/2015 09:03      17.700002667695305
Oneyear-2h        08/28/2015 09:04      17.74130961457833
Oneyear-2h        08/28/2015 09:05      17.782907115092094
Oneyear-2h        08/28/2015 09:06      17.82479859155186
Oneyear-2h        08/28/2015 09:07      17.866987522974213
Oneyear-2h        08/28/2015 09:08      17.909477446290634
Oneyear-2h        08/28/2015 09:09      17.95227195759301
Oneyear-2h        08/28/2015 09:10      17.995374713412005
Oneyear-2h        08/28/2015 09:11      18.03878943202936
Oneyear-2h        08/28/2015 09:12      18.082519894825225
Oneyear-2h        08/28/2015 09:13      18.126569947661523
Oneyear-2h        08/28/2015 09:14      18.170943502302652
Oneyear-2h        08/28/2015 09:15      18.215644537874567
Oneyear-2h        08/28/2015 09:16      18.260677102363555
Oneyear-2h        08/28/2015 09:17      18.306045314156002
Oneyear-2h        08/28/2015 09:18      18.351753363620396
Oneyear-2h        08/28/2015 09:19      18.39780551473306
Oneyear-2h        08/28/2015 09:20      18.44420610674894
Oneyear-2h        08/28/2015 09:21      18.490959555918995
Oneyear-2h        08/28/2015 09:22      18.538070357255737
Oneyear-2h        08/28/2015 09:23      18.58554308634847
Oneyear-2h        08/28/2015 09:24      18.633382401229962
Oneyear-2h        08/28/2015 09:25      18.68159304429622
Oneyear-2h        08/28/2015 09:26      18.73017984428119
Oneyear-2h        08/28/2015 09:27      18.779147718288243
Oneyear-2h        08/28/2015 09:28      18.82850167388044
Oneyear-2h        08/28/2015 09:29      18.878246811231435
Oneyear-2h        08/28/2015 09:30      18.928388325339352
Oneyear-2h        08/28/2015 09:31      18.978931508305585
Oneyear-2h        08/28/2015 09:32      19.029881751680954
Oneyear-2h        08/28/2015 09:33      19.08124454888147
Oneyear-2h        08/28/2015 09:34      19.13302549767629
Oneyear-2h        08/28/2015 09:35      19.185230302750227
Oneyear-2h        08/28/2015 09:36      19.23786477834372
Oneyear-2h        08/28/2015 09:37      19.290934850972825
Oneyear-2h        08/28/2015 09:38      19.34444656223223
Oneyear-2h        08/28/2015 09:39      19.398406071684295
Oneyear-2h        08/28/2015 09:40      19.452819659837203
Oneyear-2h        08/28/2015 09:41      19.50769373121556
Oneyear-2h        08/28/2015 09:42      19.56303481752676
Oneyear-2h        08/28/2015 09:43      19.618849580926796
Oneyear-2h        08/28/2015 09:44      19.67514481738909
Oneyear-2h        08/28/2015 09:45      19.731927460180316
Oneyear-2h        08/28/2015 09:46      19.789204583447162
Oneyear-2h        08/28/2015 09:47      19.846983405918348
Oneyear-2h        08/28/2015 09:48      19.905271294726177
Oneyear-2h        08/28/2015 09:49      19.96407576935233
Oneyear-2h        08/28/2015 09:50      20.023404505702597
Oneyear-2h        08/28/2015 09:51      20.083265340315652
Oneyear-2h        08/28/2015 09:52      20.143666274711034
Oneyear-2h        08/28/2015 09:53      20.204615479881863
Oneyear-2h        08/28/2015 09:54      20.266121300937986
Oneyear-2h        08/28/2015 09:55      20.328192261905556
Oneyear-2h        08/28/2015 09:56      20.39083707068933
Oneyear-2h        08/28/2015 09:57      20.454064624204186
Oneyear-2h        08/28/2015 09:58      20.51788401368281
Oneyear-2h        08/28/2015 09:59      20.582304530166656
Oneyear-2h        08/28/2015 10:00      20.64733567018777
Oneyear-2h        08/28/2015 10:01      20.712987141649332
Oneyear-2h        08/28/2015 10:02      20.77926886991321
Oneyear-2h        08/28/2015 10:03      20.84619100410316
Oneyear-2h        08/28/2015 10:04      20.9137639236328
Oneyear-2h        08/28/2015 10:05      20.981998244967837
Oneyear-2h        08/28/2015 10:06      21.050904828632618
Oneyear-2h        08/28/2015 10:07      21.120494786471447
Oneyear-2h        08/28/2015 10:08      21.19077948917571
Oneyear-2h        08/28/2015 10:09      21.2617705740884
Oneyear-2h        08/28/2015 10:10      21.33347995329814
Oneyear-2h        08/28/2015 10:11      21.405919822035642
Oneyear-2h        08/28/2015 10:12      21.47910266738579
Oneyear-2h        08/28/2015 10:13      21.553041277329733
Oneyear-2h        08/28/2015 10:14      21.62774875013169
Oneyear-2h        08/28/2015 10:15      21.703238504086166
Oneyear-2h        08/28/2015 10:16      21.77952428764204
Oneyear-2h        08/28/2015 10:17      21.85662018992089
Oneyear-2h        08/28/2015 10:18      21.934540651647787
Oneyear-2h        08/28/2015 10:19      22.013300476513837
Oneyear-2h        08/28/2015 10:20      22.09291484299076
Oneyear-2h        08/28/2015 10:21      22.173399316618937
Oneyear-2h        08/28/2015 10:22      22.254769862791495
Oneyear-2h        08/28/2015 10:23      22.33704286005822
Oneyear-2h        08/28/2015 10:24      22.42023511397459
Oneyear-2h        08/28/2015 10:25      22.50436387152242
Oneyear-2h        08/28/2015 10:26      22.589446836130193
Oneyear-2h        08/28/2015 10:27      22.6755021833229
Oneyear-2h        08/28/2015 10:28      22.762548577032696
Oneyear-2h        08/28/2015 10:29      22.85060518660359
Oneyear-2h        08/28/2015 10:30      22.939691704525494
Oneyear-2h        08/28/2015 10:31      23.02982836493469
Oneyear-2h        08/28/2015 10:32      23.12103596292032
Oneyear-2h        08/28/2015 10:33      23.213335874678677
Oneyear-2h        08/28/2015 10:34      23.306750078559638
Oneyear-2h        08/28/2015 10:35      23.401301177052307
Oneyear-2h        08/28/2015 10:36      23.497012419759844
Oneyear-2h        08/28/2015 10:37      23.59390772741639
Oneyear-2h        08/28/2015 10:38      23.69201171700258
Oneyear-2h        08/28/2015 10:39      23.791349728019398
Oneyear-2h        08/28/2015 10:40      23.891947849984106
Oneyear-2h        08/28/2015 10:41      23.993832951216003
Oneyear-2h        08/28/2015 10:42      24.09703270898409
Oneyear-2h        08/28/2015 10:43      24.201575641093488
Oneyear-2h        08/28/2015 10:44      24.307491138992468
Oneyear-2h        08/28/2015 10:45      24.414809502487373
Oneyear-2h        08/28/2015 10:46      24.523561976158494
Oneyear-2h        08/28/2015 10:47      24.633780787576335
Oneyear-2h        08/28/2015 10:48      24.74549918742442
Oneyear-2h        08/28/2015 10:49      24.858751491642046
Oneyear-2h        08/28/2015 10:50      24.97357312570825
Oneyear-2h        08/28/2015 10:51      25.090000671196858
Oneyear-2h        08/28/2015 10:52      25.20807191474148
Oneyear-2h        08/28/2015 10:53      25.32782589955928
Oneyear-2h        08/28/2015 10:54      25.44930297969311
Oneyear-2h        08/28/2015 10:55      25.572544877143145
Oneyear-2h        08/28/2015 10:56      25.697594742071683
Oneyear-2h        08/28/2015 10:57      25.824497216278374
Oneyear-2h        08/28/2015 10:58      25.95329850015803
Oneyear-2h        08/28/2015 10:59      26.084046423369013
Oneyear-2h        08/28/2015 11:00      26.21679051945771
;
Realtec          08/28/2015 03:00      1.3       
Realtec          08/28/2015 04:00      1.7       
Realtec          08/28/2015 05:00      0.5       
Realtec          08/28/2015 06:00      10.5      
Realtec          08/28/2015 07:00      2.1       
Realtec          08/28/2015 08:00      0.1       
Realtec          08/28/2015 09:00      0.4       
Realtec          08/28/2015 10:00      1.2       
Realtec          08/28/2015 11:00      0.5       
Realtec          08/28/2015 12:00      0.8       
Realtec          08/28/2015 13:00      0.7       
Realtec          08/28/2015 14:00      0         
Realtec          08/28/2015 15:00      0.5       
Realtec          08/28/2015 16:00      0         
Realtec          08/28/2015 17:00      0         
Realtec          08/28/2015 18:00      0         
Realtec          08/28/2015 19:00      0         
Realtec          08/28/2015 20:00      0         
Realtec          08/28/2015 21:00      0         
Realtec          08/28/2015 22:00      0         
Realtec          08/28/2015 23:00      0         
Realtec          08/28/2015 24:00:00   0         

[PATTERNS]
;;Name           Type       Multipliers
;;-------------- ---------- -----------
time-rate        HOURLY     0.040306218 0.043345101 0.033317295 0.022440628 0.016416550 0.019691959
time-rate                   0.017853435 0.035935292 0.060459580 0.061740469 0.051898542 0.046751181
time-rate                   0.047313881 0.040162884 0.049338790 0.033401371 0.036940656 0.028880526
time-rate                   0.042825452 0.057302688 0.062746846 0.052506318 0.053608926 0.044815413
;
CODcurve         HOURLY     1.0   1.0   1.0   1.0   1.0   1.0  
CODcurve                    1.0   1.0   1.0   1.0   1.0   1.0  
CODcurve                    1.0   1.0   1.0   1.0   1.0   1.0  
CODcurve                    1.0   1.0   1.0   1.0   1.0   1.0  

[REPORT]
;;Reporting Options
SUBCATCHMENTS ALL
NODES ALL
LINKS ALL

[TAGS]

[MAP]
DIMENSIONS 528870.460 495106.109 532241.600 498876.375
Units      Meters

[COORDINATES]
;;Node           X-Coord            Y-Coord           
;;-------------- ------------------ ------------------
WS02006248       531136.025         498481.684        
WS02006249       531138.078         498504.758        
WS02006251       531134.781         498556.008        
WS02006253       531130.249         498583.567        
outfall-5        531184.978         498510.968        
outfall-27       531255.933         498731.025        
CC-storage       531371.004         498644.420        

[VERTICES]
;;Link           X-Coord            Y-Coord           
;;-------------- ------------------ ------------------
CC-Pump-1        531192.604         498617.216        

[Polygons]
;;Subcatchment   X-Coord            Y-Coord           
;;-------------- ------------------ ------------------
61               531465.177         498876.291        
61               531630.755         498505.967        
61               531935.204         498648.400        
61               531755.383         499009.821        
61               531461.616         498874.511        

[SYMBOLS]
;;Gage           X-Coord            Y-Coord           
;;-------------- ------------------ ------------------
rainfall         530149.897         498517.624        

