[TITLE]
;;Project Title/Notes

[OPTIONS]
;;Option             Value
FLOW_UNITS           MLD
INFILTRATION         GREEN_AMPT
FLOW_ROUTING         DYNWAVE
LINK_OFFSETS         DEPTH
MIN_SLOPE            0
ALLOW_PONDING        NO
SKIP_STEADY_STATE    NO

START_DATE           08/28/2015
START_TIME           08:00
REPORT_START_DATE    08/28/2015
REPORT_START_TIME    08:00
END_DATE             08/28/2015
END_TIME             12:00
SWEEP_START          01/01
SWEEP_END            12/31
DRY_DAYS             4
REPORT_STEP          00:01:00
WET_STEP             00:01:00
DRY_STEP             00:01:00
ROUTING_STEP         0:00:05 

INERTIAL_DAMPING     PARTIAL
NORMAL_FLOW_LIMITED  BOTH
FORCE_MAIN_EQUATION  H-W
VARIABLE_STEP        0.75
LENGTHENING_STEP     0
MIN_SURFAREA         1.14
MAX_TRIALS           8
HEAD_TOLERANCE       0.0015
SYS_FLOW_TOL         5
LAT_FLOW_TOL         5
MINIMUM_STEP         0.5
THREADS              1

[EVAPORATION]
;;Data Source    Parameters
;;-------------- ----------------
CONSTANT         0.0
DRY_ONLY         NO

[RAINGAGES]
;;Name           Format    Interval SCF      Source    
;;-------------- --------- ------ ------ ----------
rainfall         INTENSITY 0:01     0        TIMESERIES Oneyear-2h      

[SUBCATCHMENTS]
;;Name           Rain Gage        Outlet           Area     %Imperv  Width    %Slope   CurbLen  SnowPack        
;;-------------- ---------------- ---------------- -------- -------- -------- -------- -------- ----------------
1                rainfall         WS02006247       1.21     25       27.5     0.5      0                        
2                rainfall         WS02006232       3.37     25       45.89389938 0.5      0                        
3                rainfall         WS02006113       5.1      25       56.45794895 0.5      0                        
4                rainfall         WS02004405       2.66     25       40.77376608 0.5      0                        
5                rainfall         WS02004409       1.7      25       32.59601203 0.5      0                        
6                rainfall         WS02004412       4.94     25       55.56527693 0.5      0                        
7                rainfall         XR-Inflow        160      57       316.227766 0.5      0                        
8                rainfall         WS02003102       4.24     25       51.4781507 0.5      0                        
9                rainfall         WS02003094       3.78     25       48.60555525 0.5      0                        
17               rainfall         9                3.67     25       47.89311015 0.5      0                        
18               rainfall         5                4.34     25       52.08166665 0.5      0                        
28               rainfall         WS02004406       2.63     25       40.54318685 0.5      0                        
29               rainfall         28               2.41     25       38.81043675 0.5      0                        
30               rainfall         29               0.93     25       24.1091269 0.5      0                        
31               rainfall         30               3.55     25       47.1036092 0.5      0                        
33               rainfall         34               0.87     25       23.31844763 0.5      0                        
34               rainfall         28               2.07     25       35.96873643 0.5      0                        
35               rainfall         36               3.03     25       43.51723798 0.5      0                        
36               rainfall         44               5.9      25       60.724789 0.5      0                        
39               rainfall         34               3.41     25       46.16546328 0.5      0                        
40               rainfall         36               3.91     25       49.43429983 0.5      0                        
41               rainfall         40               1.94     25       34.8209707 0.5      0                        
42               rainfall         56               2.28     25       37.74917218 0.5      0                        
43               rainfall         44               0.36     25       15       0.5      0                        
44               rainfall         WS02006228       0.37     25       15.20690633 0.5      0                        
45               rainfall         46               1.03     25       25.37222893 0.5      0                        
46               rainfall         36               2.14     25       36.5718471 0.5      0                        
47               rainfall         48               1.11     25       26.33913438 0.5      0                        
48               rainfall         46               1.58     25       31.42451273 0.5      0                        
55               rainfall         WS02006251       0.83     25       22.77608395 0.5      0                        
56               rainfall         1                2.14     25       36.5718471 0.5      0                        
57               rainfall         WS02005192       5        25       55.90169943 0.5      0                        
59               rainfall         55               0.84     25       22.91287848 0.5      0                        
60               rainfall         56               0.52     25       18.02775638 0.5      0                        
61               rainfall         CC-storage       18       25       106.0660172 0.5      0                        
62               rainfall         JK-storage       19       25       108.9724736 0.5      0                        
64               rainfall         60               1.2      25       27.38612788 0.5      0                        

[SUBAREAS]
;;Subcatchment   N-Imperv   N-Perv     S-Imperv   S-Perv     PctZero    RouteTo    PctRouted 
;;-------------- ---------- ---------- ---------- ---------- ---------- ---------- ----------
1                0.011      0.1        0.05       0.05       75         OUTLET    
2                0.011      0.1        0.05       0.05       75         OUTLET    
3                0.011      0.1        0.05       0.05       75         OUTLET    
4                0.011      0.1        0.05       0.05       75         OUTLET    
5                0.011      0.1        0.05       0.05       75         OUTLET    
6                0.011      0.1        0.05       0.05       75         OUTLET    
7                0.011      0.1        0.05       0.05       75         OUTLET    
8                0.011      0.1        0.05       0.05       75         OUTLET    
9                0.011      0.1        0.05       0.05       75         OUTLET    
17               0.011      0.1        0.05       0.05       75         OUTLET    
18               0.011      0.1        0.05       0.05       75         OUTLET    
28               0.011      0.1        0.05       0.05       75         OUTLET    
29               0.011      0.1        0.05       0.05       75         OUTLET    
30               0.011      0.1        0.05       0.05       75         OUTLET    
31               0.011      0.1        0.05       0.05       75         OUTLET    
33               0.011      0.1        0.05       0.05       75         OUTLET    
34               0.011      0.1        0.05       0.05       75         OUTLET    
35               0.011      0.1        0.05       0.05       75         OUTLET    
36               0.011      0.1        0.05       0.05       75         OUTLET    
39               0.011      0.1        0.05       0.05       75         OUTLET    
40               0.011      0.1        0.05       0.05       75         OUTLET    
41               0.011      0.1        0.05       0.05       75         OUTLET    
42               0.011      0.1        0.05       0.05       75         OUTLET    
43               0.011      0.1        0.05       0.05       75         OUTLET    
44               0.011      0.1        0.05       0.05       75         OUTLET    
45               0.011      0.1        0.05       0.05       75         OUTLET    
46               0.011      0.1        0.05       0.05       75         OUTLET    
47               0.011      0.1        0.05       0.05       75         OUTLET    
48               0.011      0.1        0.05       0.05       75         OUTLET    
55               0.011      0.1        0.05       0.05       75         OUTLET    
56               0.011      0.1        0.05       0.05       75         OUTLET    
57               0.011      0.1        0.05       0.05       75         OUTLET    
59               0.011      0.1        0.05       0.05       75         OUTLET    
60               0.011      0.1        0.05       0.05       75         OUTLET    
61               0.011      0.1        0.05       0.05       75         OUTLET    
62               0.011      0.1        0.05       0.05       75         OUTLET    
64               0.011      0.1        0.05       0.05       75         OUTLET    

[INFILTRATION]
;;Subcatchment   Suction    Ksat       IMD       
;;-------------- ---------- ---------- ----------
1                3.0        0.5        4         
2                3.0        0.5        4         
3                3.0        0.5        4         
4                3.0        0.5        4         
5                3.0        0.5        4         
6                3.0        0.5        4         
7                50         2.2        4         
8                3.0        0.5        4         
9                3.0        0.5        4         
17               3.0        0.5        4         
18               3.0        0.5        4         
28               3.0        0.5        4         
29               3.0        0.5        4         
30               3.0        0.5        4         
31               3.0        0.5        4         
33               3.0        0.5        4         
34               3.0        0.5        4         
35               3.0        0.5        4         
36               3.0        0.5        4         
39               3.0        0.5        4         
40               3.0        0.5        4         
41               3.0        0.5        4         
42               3.0        0.5        4         
43               3.0        0.5        4         
44               3.0        0.5        4         
45               3.0        0.5        4         
46               3.0        0.5        4         
47               3.0        0.5        4         
48               3.0        0.5        4         
55               3.0        0.5        4         
56               3.0        0.5        4         
57               3.0        0.5        4         
59               3.0        0.5        4         
60               3.0        0.5        4         
61               3.0        0.5        4         
62               3.0        0.5        4         
64               3.0        0.5        4         

[JUNCTIONS]
;;Name           Elevation  MaxDepth   InitDepth  SurDepth   Aponded   
;;-------------- ---------- ---------- ---------- ---------- ----------
WS01000070       0          0          0          0          10        
WS01000323       0          0          0          0          10        
WS01000533       6.86       2.147      0          0          10        
WS01005172       0          0          0          0          10        
WS01005181       0          0          0          0          10        
WS01009841       0          0          0          0          10        
WS02000078       0          0          0          0          10        
WS02000112       0          0          0          0          10        
WS02000136       0          0          0          0          10        
WS02001211       4.84       3.948      0          0          10        
WS02001212       4.8        4.264      0          0          10        
WS02001213       4.7        4.362      0          0          10        
WS02003059       4.65       4.717      0          0          10        
WS02003060       4.55       4.432      0          0          10        
WS02003066       5.3        4.614      0          0          10        
WS02003067       5.32       4.22       0          0          10        
WS02003071       4.4        4.757      0          0          10        
WS02003072       4.37       4.971      0          0          10        
WS02003073       4.24       5.275      0          0          10        
WS02003076       4.23       5.447      0          0          10        
WS02003077       5.01       4.722      0          0          10        
WS02003078       6.9        2.722      0          0          10        
WS02003079       6.91       2.355      0          0          10        
WS02003093       7.34       2.377      0          0          10        
WS02003094       7.22       2.265      0          0          10        
WS02003098       7.17       2.286      0          0          10        
WS02003099       7.04       2.468      0          0          11        
WS02003102       7.03       2.442      0          0          10        
WS02003103       6.97       2.547      0          0          10        
WS02003104       6.96       2.496      0          0          10        
WS02003106       6.93       2.543      0          0          10        
WS02004050       4.22       5.271      0          0          10        
WS02004053       0          0          0          0          10        
WS02004136       6.73       0          0          265        10        
WS02004139       4.96       3.83       0          0          10        
WS02004401       6          2.66       0          0          10        
WS02004402       5.96       2.74       0          0          12        
WS02004403       5.93       3.03       0          0          12        
WS02004404       5.85       3.78       0          0          10        
WS02004405       5.84       3.8        0          0          11        
WS02004406       5.83       3.45       0          0          12        
WS02004407       5.8        3.343      0          0          13        
WS02004409       5.77       3.36       0          0          12        
WS02004410       5.72       3.54       0          0          12        
WS02004411       5.68       3.53       0          0          12        
WS02004412       5.64       3.31       0          0          12        
WS02004413       5.47       3.2        0          0          11        
WS02004997       1.61       6.9        0          0          10        
WS02005192       7.87       3.419      0          0          10        
WS02005193       7.82       3.217      0          0          10        
WS02005196       7.85       3.306      0          0          10        
WS02006109       6.62       2.638      0          0          10        
WS02006110       6.6        2.645      0          0          10        
WS02006111       6.58       2.677      0          0          11        
WS02006112       6.12       2.683      0          0          12        
WS02006113       6.59       2.733      0          0          10        
WS02006115       6.1        3.299      0          0          10        
WS02006116       6.04       3.35       0          0          10        
WS02006183       0          0          0          0          10        
WS02006228       6.65       3.031      0          0          10        
WS02006229       6.69       3.254      0          0          10        
WS02006230       6.75       2.645      0          0          10        
WS02006231       6.9        2.243      0          0          10        
WS02006232       7.03       2.189      0          0          10        
WS02006234       7.16       1.957      0          0          10        
WS02006235       7.17       1.994      0          0          11        
WS02006238       7.18       2.134      0          0          10        
WS02006239       7.21       2.029      0          0          10        
WS02006242       7.3        1.549      0          0          10        
WS02006240       7.29       2.103      0          0          10        
WS02006243       7.42       1.48       0          0          11        
WS02006245       7.49       1.555      0          0          10        
WS02006247       7.51       1.46       0          0          10        
WS02006248       7.59       1.077      0          0          10        
WS02006249       7.6        1.088      0          0          10        
WS02006251       7.67       2.21       0          0          10        
WS02006253       7.8        3.154      0          0          10        
WS02618401       0          0          0          0          10        
WS8802           4.38       4.942      0          0          10        
WSA1649          0          0          0          0          10        
WSF200           5.1        4.4828     0          0          11        
XR-Inflow        1.81       6.55       0          0          10        
WS02004114       1.6        7.415      0          0          10        

[OUTFALLS]
;;Name           Elevation  Type       Stage Data       Gated    Route To        
;;-------------- ---------- ---------- ---------------- -------- ----------------
outfall-2        7          FREE                        NO                       
outfall-5        7.667      FREE                        NO                       
outfall-14       7.66       FREE                        NO                       
outfall-16       8.395      FREE                        NO                       
12               0          FREE                        NO                       

[STORAGE]
;;Name           Elev.    MaxDepth   InitDepth  Shape      Curve Name/Params            N/A      Fevap    Psi      Ksat     IMD     
;;-------------- -------- ---------- ----------- ---------- ---------------------------- -------- --------          -------- --------
XR-storage       0.5      7.72       0          TABULAR    XR-curve                     0.5      0       
CC-storage       3.18     5.63       0          TABULAR    CC-curve                     0        0       
JK-storage       3        4.8        0          TABULAR    CC-curve                     0        0       

[CONDUITS]
;;Name           From Node        To Node          Length     Roughness  InOffset   OutOffset  InitFlow   MaxFlow   
;;-------------- ---------------- ---------------- ---------- ---------- ---------- ---------- ---------- ----------
WSL49            WS02003073       WS02003076       29.66824194 0.01       0          0          0          0         
WSL1465          WS02003059       WS02003060       60.05000427 0.01       0          0          0          0         
WSL1472          WS02003071       WS02003072       74.80643075 0.01       0          0          0          0         
WSL1475          WS02003076       WS02004050       49.70089909 0.01       0          0          0          0         
WSL1476          WS02003077       WS02003073       40.07620254 0.01       0          0          0          0         
WSL1477          WS02003079       WS02003078       7.428592937 0.01       0          0          0          0         
WSL1490          WS02001211       WS02001212       75.94372337 0.01       0          0          0          0         
WSL1491          WS02001212       WS02001213       24.62827288 0.01       0          0          0          0         
WSL1492          WS02001213       WS02003059       86.10605784 0.01       0          0          0          0         
WSL1507          WS02003093       WS02003094       43.51482218 0.01       0          0          0          0         
WSL1508          WS02003094       WS02003098       87.92246098 0.01       0          0          0          0         
WSL1512          WS02003098       WS02003099       44.78705345 0.01       0          0          0          0         
WSL1513          WS02003099       WS02003102       76.26677164 0.01       0          0          0          0         
WSL1515          WS02003067       WS02003066       36.53550191 0.01       0          0          0          0         
WSL1516          WS02003078       WS02003077       11.12001304 0.01       0          0          0          0         
WSL1518          WS02003102       WS02003103       50.79575624 0.01       0          0          0          0         
WSL1519          WS02003104       WS02003106       40.88415987 0.01       0          0          0          0         
WSL1521          WS02003106       WS02003079       36.43723652 0.01       0          0          0          0         
WSL1543          WS02003103       WS02003104       21.4712424 0.01       0          0          0          0         
WSL1961          WS02004136       WS02004139       58.34093316 0.01       0          0          0          0         
WSL1964          WS02004139       WS02001211       68.00040048 0.01       0          0          0          0         
WSL2010          WS02004402       WS02004403       35.60295395 0.01       0          0          0          0         
WSL2011          WS02004403       WS02004404       24.03115738 0.01       0          0          0          0         
WSL2012          WS02004404       WS02004405       16.820481  0.01       0          0          0          0         
WSL2013          WS02004405       WS02004406       44.73990577 0.01       0          0          0          0         
WSL2014          WS02004406       WS02004407       55.45764409 0.01       0          0          0          0         
WSL2015          WS02004407       WS02004409       39.18905166 0.01       0          0          0          0         
WSL2016          WS02004409       WS02004410       48.08165556 0.01       0          0          0          0         
WSL2017          WS02004410       WS02004411       42.8957446 0.01       0          0          0          0         
WSL2018          WS02004412       WS02004413       43.83576846 0.01       0          0          0          0         
WSL2019          WS02004413       WS02003067       37.94822717 0.01       0          0          0          0         
WSL2028          WS02004401       WS02004402       33.14026036 0.01       0          0          0          0         
WSL2029          WS02004411       WS02004412       46.40013901 0.01       0          0          0          0         
WSL2038          WS02005192       WS02005196       23.58459881 0.01       0          0          0          0         
WSL2039          WS02005193       WS02006253       25.16447577 0.01       0          0          0          0         
WSL2041          WS02005196       WS02005193       34.36744019 0.01       0          0          0          0         
WSL2294          WS02006109       WS02006110       49.78419143 0.01       0          0          0          0         
WSL2295          WS02006110       WS02006113       44.58819505 0.01       0          0          0          0         
WSL2296          WS02006111       WS02006112       32.18987832 0.01       0          0          0          0         
WSL2297          WS02006112       WS02006115       53.28177986 0.01       0          0          0          0         
WSL2298          WS02006113       WS02006111       46.74159027 0.01       0          0          0          0         
WSL2301          WS02006115       WS02006116       36.9321561 0.01       0          0          0          0         
WSL2302          WS02006116       WS02004401       43.69167106 0.01       0          0          0          0         
WSL2441          WS02006228       WS02006109       43.40027099 0.01       0          0          0          0         
WSL2442          WS02006230       WS02006229       42.49073354 0.01       0          0          0          0         
WSL2443          WS02006231       WS02006230       39.48257333 0.01       0          0          0          0         
WSL2444          WS02006232       WS02006231       35.41112416 0.01       0          0          0          0         
WSL2446          WS02006234       WS02006232       41.42669942 0.01       0          0          0          0         
WSL2447          WS02006235       WS02006234       28.65472263 0.01       0          0          0          0         
WSL2448          WS02006238       WS02006235       8.554294652 0.01       0          0          0          0         
WSL2449          WS02006239       WS02006238       39.53012444 0.01       0          0          0          0         
WSL2450          WS02006240       WS02006239       37.38474466 0.01       0          0          0          0         
WSL2451          WS02006242       WS02006240       46.01374822 0.01       0          0          0          0         
WSL2452          WS02006243       WS02006242       47.39238294 0.01       0          0          0          0         
WSL2454          WS02006245       WS02006243       41.27610524 0.01       0          0          0          0         
WSL2478          WS02006247       WS02006245       26.96662352 0.01       0          0          0          0         
WSL2479          WS02006248       WS02006247       31.30249053 0.01       0          0          0          0         
WSL2480          WS02006249       WS02006248       23.16515238 0.01       0          0          0          0         
WSL2482          WS02006251       WS02006249       51.35594132 0.01       0          0          0          0         
WSL2484          WS02006253       WS02006251       27.92915153 0.01       0          0          0          0         
WSL2493          WS02006229       WS02006228       24.94448945 0.01       0          0          0          0         
WSL2867          WS02003066       WSF200           16.21389046 0.01       0          0          0          0         
WSL2868          WSF200           WS02003060       38.06422625 0.01       0          0          0          0         
WSL348           XR-Inflow        WS02004997       69.306167  0.01       0          0          0          0         
WSL175           WS02004997       WS02004114       46.920     0.01       0          0          0          0         
WSL1467          WS02003060       WS02003071       81.075     0.01       0          0          0          0         
WSL1473          WS02003072       WS02003073       41.8851784 0.01       0          0          0          0         
XRpipe           WS02004114       XR-storage       27.496698  0.01       0          0          0          0         
8                WS02006248       outfall-5        5          0.01       0.6        0          0          0         
19               WS02006230       outfall-16       5          0.01       2.2        0          0          0         
17               WS02004401       outfall-14       5          0.01       2.2        0          0          0         
4                WS02001211       outfall-2        5          0.01       3.4        0          0          0         
2                WS02004050       12               400        0.01       0          0          0          0         

[PUMPS]
;;Name           From Node        To Node          Pump Curve       Status   Sartup Shutoff 
;;-------------- ---------------- ---------------- ---------------- ------ -------- --------
XR-Pump-1        XR-storage       WS02004136       XR-Pumpcurve     OFF      3.26     2.9     
XR-Pump-3        XR-storage       WS02004136       XR-Pumpcurve     OFF      3.71     3.53    
XR-Pump-2        XR-storage       WS02004136       XR-Pumpcurve     OFF      3.53     3.26    
XR-Pump-4        XR-storage       WS02004136       XR-Pumpcurve     OFF      3.8      3.71    
CC-Pump-1        CC-storage       WS02006253       CC-Pumpcurve     OFF      5.02     2.9     
CC-Pump-2        CC-storage       WS02006253       CC-Pumpcurve     OFF      6.08     5.02    
JK-Pump-1        JK-storage       WS02006238       JK-Pumpcurve     OFF      5.02     2.9     
JK-Pump-2        JK-storage       WS02006238       JK-Pumpcurve     OFF      6.08     5.02    

[XSECTIONS]
;;Link           Shape        Geom1            Geom2      Geom3      Geom4      Barrels    Culvert   
;;-------------- ------------ ---------------- ---------- ---------- ---------- ---------- ----------
WSL49            CIRCULAR     1.2              0          0          0          1                    
WSL1465          CIRCULAR     1                0          0          0          1                    
WSL1472          CIRCULAR     1.2              0          0          0          1                    
WSL1475          CIRCULAR     1.4              0          0          0          1                    
WSL1476          CIRCULAR     0.8              0          0          0          1                    
WSL1477          CIRCULAR     0.6              0          0          0          1                    
WSL1490          CIRCULAR     1                0          0          0          1                    
WSL1491          CIRCULAR     1                0          0          0          1                    
WSL1492          CIRCULAR     1                0          0          0          1                    
WSL1507          CIRCULAR     0.8              0          0          0          1                    
WSL1508          CIRCULAR     0.8              0          0          0          1                    
WSL1512          CIRCULAR     1                0          0          0          1                    
WSL1513          CIRCULAR     0.8              0          0          0          1                    
WSL1515          CIRCULAR     1.2              0          0          0          1                    
WSL1516          CIRCULAR     0.6              0          0          0          1                    
WSL1518          CIRCULAR     0.8              0          0          0          1                    