[TITLE]
;;Project Title/Notes

[OPTIONS]
;;Option             Value
FLOW_UNITS           MLD
INFILTRATION         GREEN_AMPT
FLOW_ROUTING         DYNWAVE
LINK_OFFSETS         DEPTH
MIN_SLOPE            0
ALLOW_PONDING        NO
SKIP_STEADY_STATE    NO

START_DATE           08/28/2015
START_TIME           08:00
REPORT_START_DATE    08/28/2015
REPORT_START_TIME    08:00
END_DATE             08/28/2015
END_TIME             12:00
SWEEP_START          01/01
SWEEP_END            12/31
DRY_DAYS             4
REPORT_STEP          00:01:00
WET_STEP             00:01:00
DRY_STEP             00:01:00
ROUTING_STEP         0:00:05 

INERTIAL_DAMPING     PARTIAL
NORMAL_FLOW_LIMITED  BOTH
FORCE_MAIN_EQUATION  H-W
VARIABLE_STEP        0.75
LENGTHENING_STEP     0
MIN_SURFAREA         1.14
MAX_TRIALS           8
HEAD_TOLERANCE       0.0015
SYS_FLOW_TOL         5
LAT_FLOW_TOL         5
MINIMUM_STEP         0.5
THREADS              1

[EVAPORATION]
;;Data Source    Parameters
;;-------------- ----------------
CONSTANT         0.0
DRY_ONLY         NO

[RAINGAGES]
;;Name           Format    Interval SCF      Source    
;;-------------- --------- ------ ------ ----------
rainfall         INTENSITY 0:01     0        TIMESERIES Oneyear-2h      

[SUBCATCHMENTS]
;;Name           Rain Gage        Outlet           Area     %Imperv  Width    %Slope   CurbLen  SnowPack        
;;-------------- ---------------- ---------------- -------- -------- -------- -------- -------- ----------------
61               rainfall         CC-storage       18       25       106.0660172 0.5      0                        

[SUBAREAS]
;;Subcatchment   N-Imperv   N-Perv     S-Imperv   S-Perv     PctZero    RouteTo    PctRouted 
;;-------------- ---------- ---------- ---------- ---------- ---------- ---------- ----------
61               0.011      0.1        0.05       0.05       75         OUTLET    

[INFILTRATION]
;;Subcatchment   Suction    Ksat       IMD       
;;-------------- ---------- ---------- ----------
61               3.0        0.5        4         

[JUNCTIONS]
;;Name           Elevation  MaxDepth   InitDepth  SurDepth   Aponded   
;;-------------- ---------- ---------- ---------- ---------- ----------
WS02006248       7.59       1.077      0          0          10        
WS02006249       7.6        1.088      0          0          10        
WS02006251       7.67       2.21       0          0          10        
WS02006253       7.8        3.154      0          0          10        

[OUTFALLS]
;;Name           Elevation  Type       Stage Data       Gated    Route To        
;;-------------- ---------- ---------- ---------------- -------- ----------------
outfall-5        7.667      FREE                        NO                       
outfall-27       7.9        FREE                        NO                       

[STORAGE]
;;Name           Elev.    MaxDepth   InitDepth  Shape      Curve Name/Params            N/A      Fevap    Psi      Ksat     IMD     
;;-------------- -------- ---------- ----------- ---------- ---------------------------- -------- --------          -------- --------
CC-storage       3.18     5.63       0          TABULAR    CC-curve                     0        0       

[CONDUITS]
;;Name           From Node        To Node          Length     Roughness  InOffset   OutOffset  InitFlow   MaxFlow   
;;-------------- ---------------- ---------------- ---------- ---------- ---------- ---------- ---------- ----------
WSL2480          WS02006249       WS02006248       23.16515238 0.01       0          0          0          0         
WSL2482          WS02006251       WS02006249       51.35594132 0.01       0          0          0          0         
WSL2484          WS02006253       WS02006251       27.92915153 0.01       0          0          0          0         
8                WS02006248       outfall-5        5          0.01       0.6        0          0          0         
1                CC-storage       outfall-27       10         0.01       5.13       0          0          0         

[PUMPS]
;;Name           From Node        To Node          Pump Curve       Status   Sartup Shutoff 
;;-------------- ---------------- ---------------- ---------------- ------ -------- --------
CC-Pump-1        CC-storage       WS02006253       CC-Pumpcurve     OFF      3.02     0.9     

[XSECTIONS]
;;Link           Shape        Geom1            Geom2      Geom3      Geom4      Barrels    Culvert   
;;-------------- ------------ ---------------- ---------- ---------- ---------- ---------- ----------
WSL2480          CIRCULAR     0.7              0          0          0          1                    
WSL2482          CIRCULAR     0.7              0          0          0          1                    
WSL2484          CIRCULAR     0.7              0          0          0          1                    
8                CIRCULAR     0.4              0          0          0          1                    
1                CIRCULAR     0.4              0          0          0          1                    

[CONTROLS]




[POLLUTANTS]
;;Name           Units  Crain      Cgw        Crdii      Kdecay     SnowOnly   Co-Pollutant     Co-Frac    Cdwf       Cinit     
;;-------------- ------ ---------- ---------- ---------- ---------- ---------- ---------------- ---------- ---------- ----------
COD              MG/L   0.0        0.0        167        0.0        NO         *                0.0        0          0.0       
NH3-N            MG/L   0.0        0.0        0.0        0.0        NO         *                0.0        0          0.0       
TN               MG/L   0.0        0.0        0.0        0.0        NO         *                0.0        0          0.0       
TP               MG/L   0.0        0.0        0.0        0.0        NO         *                0.0        0          0.0       
SS               MG/L   0.0        0.0        0.0        0.0        NO         *                0.0        0          0.0       

[LANDUSES]
;;               Sweeping   Fraction   Last      
;;Name           Interval   Available  Swept     
;;-------------- ---------- ---------- ----------
roof             0          0          0         
green            0          0          0         
road             0          0          1         

[COVERAGES]
;;Subcatchment   Land Use         Percent   
;;-------------- ---------------- ----------
61               roof             30        
61               green            20        
61               road             50        

[LOADINGS]
;;Subcatchment   Pollutant        Buildup   
;;-------------- ---------------- ----------

[BUILDUP]
;;Land Use       Pollutant        Function   Coeff1     Coeff2     Coeff3     Per Unit  
;;-------------- ---------------- ---------- ---------- ---------- ---------- ----------
roof             COD              SAT        120        0          10         AREA      
roof             NH3-N            NONE       0.0        0.0        0.0        AREA      
roof             TN               NONE       0.0        0.0        0.0        AREA      
roof             TP               NONE       0.0        0.0        0.0        AREA      
roof             SS               NONE       0.0        0.0        0.0        AREA      
green            COD              SAT        60         0          10         AREA      
green            NH3-N            NONE       0.0        0.0        0.0        AREA      
green            TN               NONE       0.0        0.0        0.0        AREA      
green            TP               NONE       0.0        0.0        0.0        AREA      
green            SS               NONE       0.0        0.0        0.0        AREA      
road             COD              SAT        240        0          10         AREA      
road             NH3-N            NONE       0.0        0.0        0.0        AREA      
road             TN               NONE       0.0        0.0        0.0        AREA      
road             TP               NONE       0.0        0.0        0.0        AREA      
road             SS               NONE       0.0        0.0        0.0        AREA      

[WASHOFF]
;;Land Use       Pollutant        Function   Coeff1     Coeff2     SweepRmvl  BmpRmvl   
;;-------------- ---------------- ---------- ---------- ---------- ---------- ----------
roof             COD              EXP        0.012      1.8        0          0.0       
roof             NH3-N            EMC        0.0        0.0        0.0        0.0       
roof             TN               EMC        0.0        0.0        0.0        0.0       
roof             TP               EMC        0.0        0.0        0.0        0.0       
roof             SS               EMC        0.0        0.0        0.0        0.0       
green            COD              EXP        0.01       1.5        0          0.0       
green            NH3-N            EMC        0.0        0.0        0.0        0.0       
green            TN               EMC        0.0        0.0        0.0        0.0       
green            TP               EMC        0.0        0.0        0.0        0.0       
green            SS               EMC        0.0        0.0        0.0        0.0       
road             COD              EXP        0.015      2          0.7        0.0       
road             NH3-N            EMC        0.0        0.0        0.0        0.0       
road             TN               EMC        0.0        0.0        0.0        0.0       
road             TP               EMC        0.0        0.0        0.0        0.0       
road             SS               EMC        0.0        0.0        0.0        0.0       

[INFLOWS]
;;Node           Constituent      Time Series      Type     Mfactor  Sfactor  Baseline Pattern
;;-------------- ---------------- ---------------- -------- -------- -------- -------- --------
WS02006248       FLOW             groundwateraver  FLOW     1.0      1.1732   1.1953290 time-rate
WS02006248       COD              ""               CONCEN   1        1        167      CODcurve
WS02006249       FLOW             groundwateraver  FLOW     1.0      1.1732   2.2118054 time-rate
WS02006249       COD              ""               CONCEN   1        1        167      CODcurve
WS02006251       FLOW             groundwateraver  FLOW     1.0      1.1732   0.1735800 time-rate
WS02006251       COD              ""               CONCEN   1        1        167      CODcurve
WS02006253       FLOW             groundwateraver  FLOW     1.0      1.1732   0.9829174 time-rate
WS02006253       COD              ""               CONCEN   1        1        167      CODcurve
CC-storage       FLOW             ""               FLOW     1.0      1.0      31.2     time-rate
CC-storage       COD              ""               CONCEN   1.0      1.0      167      CODcurve

[CURVES]
;;Name           Type       X-Value    Y-Value   
;;-------------- ---------- ---------- ----------
XB-Pumpcurve     Pump2      0          11.4      
XB-Pumpcurve                5.34       11.4      
;
CC-Pumpcurve     Pump2      0          17.28     
CC-Pumpcurve                5.63       17.28     
;
JK-Pumpcurve     Pump2      0          17.28     
JK-Pumpcurve                5.63       17.28     
;
XR-Pumpcurve     Pump2      0          8.12      
XR-Pumpcurve                7.72       8.12      
;
JK-curve         Storage    0          28.26     
JK-curve                    4.8        28.26     
;
CC-curve         Storage    0          28.26     
CC-curve                    5.63       28.26     
;
XR-curve         Storage    0          8.12      
XR-curve                    7.72       8.12      
;
XB-curve         Storage    0          11.4      
XB-curve                    5.34       11.4      
;
End-curve        Storage    0          10800     
End-curve                   10         10800     

[TIMESERIES]
;;Name           Date       Time       Value     
;;-------------- ---------- ---------- ----------
groundwateraver  8/28/2015  00:00      0.042     
groundwateraver  8/28/2015  01:00      0.042     
groundwateraver  8/28/2015  02:00      0.042     
groundwateraver  8/28/2015  03:00      0.042     
groundwateraver  8/28/2015  04:00      0.042     
groundwateraver  8/28/2015  05:00      0.042     
groundwateraver  8/28/2015  06:00      0.042     
groundwateraver  8/28/2015  07:00      0.042     
groundwateraver  8/28/2015  08:00      0.042     
groundwateraver  8/28/2015  09:00      0.042     
groundwateraver  8/28/2015  10:00      0.042     
groundwateraver  8/28/2015  11:00      0.042     
groundwateraver  8/28/2015  12:00      0.042     
groundwateraver  8/28/2015  13:00      0.042     
groundwateraver  8/28/2015  14:00      0.042     
groundwateraver  8/28/2015  15:00      0.042     
groundwateraver  8/28/2015  16:00      0.042     
groundwateraver  8/28/2015  17:00      0.042     
groundwateraver  8/28/2015  18:00      0.042     
groundwateraver  8/28/2015  19:00      0.042     
groundwateraver  8/28/2015  20:00      0.042     
groundwateraver  8/28/2015  21:00      0.042     
groundwateraver  8/28/2015  22:00      0.042     
groundwateraver  8/28/2015  23:00      0.042     
groundwateraver  8/29/2015  00:00      0.042     
groundwateraver  8/29/2015  01:00      0.042     
groundwateraver  8/29/2015  02:00      0.042     
groundwateraver  8/29/2015  03:00      0.042     
groundwateraver  8/29/2015  04:00      0.042     
groundwateraver  8/29/2015  05:00      0.042     
groundwateraver  8/29/2015  06:00      0.042     
groundwateraver  8/29/2015  07:00      0.042     
groundwateraver  8/29/2015  08:00      0.042     
groundwateraver  8/29/2015  09:00      0.042     
groundwateraver  8/29/2015  10:00      0.042     
groundwateraver  8/29/2015  11:00      0.042     
groundwateraver  8/29/2015  12:00      0.042     
groundwateraver  8/29/2015  13:00      0.042     
groundwateraver  8/29/2015  14:00      0.042     
groundwateraver  8/29/2015  15:00      0.042     
groundwateraver  8/29/2015  16:00      0.042     
groundwateraver  8/29/2015  17:00      0.042     
groundwateraver  8/29/2015  18:00      0.042     
groundwateraver  8/29/2015  19:00      0.042     
groundwateraver  8/29/2015  20:00      0.042     
groundwateraver  8/29/2015  21:00      0.042     
groundwateraver  8/29/2015  22:00      0.042     
groundwateraver  8/29/2015  23:00      0.042     
;
Oneyear-2h        08/28/2015 09:01      130.0445763308283
Oneyear-2h        08/28/2015 09:02      91.95540178006028
Oneyear-2h        08/28/2015 09:03      75.08127115125457
Oneyear-2h        08/28/2015 09:04      65.02228816541415
Oneyear-2h        08/28/2015 09:05      58.15770255617845
Oneyear-2h        08/28/2015 09:06      53.09047597115801
Oneyear-2h        08/28/2015 09:07      49.15222976058974
Oneyear-2h        08/28/2015 09:08      45.97770089003014
Oneyear-2h        08/28/2015 09:09      43.3481921102761
Oneyear-2h        08/28/2015 09:10      41.12370585570399
Oneyear-2h        08/28/2015 09:11      39.209915064553655
Oneyear-2h        08/28/2015 09:12      37.540635575627284
Oneyear-2h        08/28/2015 09:13      36.06787600436863
Oneyear-2h        08/28/2015 09:14      34.75587497415224
Oneyear-2h        08/28/2015 09:15      33.577365226259815
Oneyear-2h        08/28/2015 09:16      32.51114408270708
Oneyear-2h        08/28/2015 09:17      31.540442602982555
Oneyear-2h        08/28/2015 09:18      30.651800593353432
Oneyear-2h        08/28/2015 09:19      29.83427191482326
Oneyear-2h        08/28/2015 09:20      29.078851278089225
Oneyear-2h        08/28/2015 09:21      28.378053083546824
Oneyear-2h        08/28/2015 09:22      27.725596831894453
Oneyear-2h        08/28/2015 09:23      27.1161686349232
Oneyear-2h        08/28/2015 09:24      26.545237985579003
Oneyear-2h        08/28/2015 09:25      26.008915266165662
Oneyear-2h        08/28/2015 09:26      25.503839705684616
Oneyear-2h        08/28/2015 09:27      25.027090383751517
Oneyear-2h        08/28/2015 09:28      24.57611488029487
Oneyear-2h        08/28/2015 09:29      24.1486715798446
Oneyear-2h        08/28/2015 09:30      23.74278264586569
Oneyear-2h        08/28/2015 09:31      23.356695408842402
Oneyear-2h        08/28/2015 09:32      22.98885044501507
Oneyear-2h        08/28/2015 09:33      22.637855017422417
Oneyear-2h        08/28/2015 09:34      22.302460846194048
Oneyear-2h        08/28/2015 09:35      21.981545398073376
Oneyear-2h        08/28/2015 09:36      21.67409605513805
Oneyear-2h        08/28/2015 09:37      21.37919665334241
Oneyear-2h        08/28/2015 09:38      21.096015982734894
Oneyear-2h        08/28/2015 09:39      20.82379792022027
Oneyear-2h        08/28/2015 09:40      20.561852927851994
Oneyear-2h        08/28/2015 09:41      20.309550698795437
Oneyear-2h        08/28/2015 09:42      20.066313772247774
Oneyear-2h        08/28/2015 09:43      19.831611969960598
Oneyear-2h        08/28/2015 09:44      19.604957532276828
Oneyear-2h        08/28/2015 09:45      19.385900852059486
Oneyear-2h        08/28/2015 09:46      19.17402672155216
Oneyear-2h        08/28/2015 09:47      18.968951020843573
Oneyear-2h        08/28/2015 09:48      18.770317787813642
Oneyear-2h        08/28/2015 09:49      18.577796618689757
Oneyear-2h        08/28/2015 09:50      18.391080356012058
Oneyear-2h        08/28/2015 09:51      18.209883027191918
Oneyear-2h        08/28/2015 09:52      18.033938002184314
Oneyear-2h        08/28/2015 09:53      17.862996343270915
Oneyear-2h        08/28/2015 09:54      17.69682532371933
Oneyear-2h        08/28/2015 09:55      17.535207095267005
Oneyear-2h        08/28/2015 09:56      17.37793748707612
Oneyear-2h        08/28/2015 09:57      17.224824921099703
Oneyear-2h        08/28/2015 09:58      17.07568943075497
Oneyear-2h        08/28/2015 09:59      16.930361771473162
Oneyear-2h        08/28/2015 10:00      16.788682613129907
Oneyear-2h        08/28/2015 10:01      16.65050180559459
Oneyear-2h        08/28/2015 10:02      16.515677709701162
Oneyear-2h        08/28/2015 10:03      16.384076586863248
Oneyear-2h        08/28/2015 10:04      16.25557204135354
Oneyear-2h        08/28/2015 10:05      16.13004450996035
Oneyear-2h        08/28/2015 10:06      16.007380794337298
Oneyear-2h        08/28/2015 10:07      15.887473631888415
Oneyear-2h        08/28/2015 10:08      15.770221301491278
Oneyear-2h        08/28/2015 10:09      15.655527260764195
Oneyear-2h        08/28/2015 10:10      15.543299811937631
Oneyear-2h        08/28/2015 10:11      15.433451793701755
Oneyear-2h        08/28/2015 10:12      15.325900296676716
Oneyear-2h        08/28/2015 10:13      15.220566400394913
Oneyear-2h        08/28/2015 10:14      15.11737492989916
Oneyear-2h        08/28/2015 10:15      15.01625423025091
Oneyear-2h        08/28/2015 10:16      14.91713595741163
Oneyear-2h        08/28/2015 10:17      14.819954884110581
Oneyear-2h        08/28/2015 10:18      14.724648719446076
Oneyear-2h        08/28/2015 10:19      14.631157941086572
Oneyear-2h        08/28/2015 10:20      14.539425639044612
Oneyear-2h        08/28/2015 10:21      14.449397370092035
Oneyear-2h        08/28/2015 10:22      14.361021021970236
Oneyear-2h        08/28/2015 10:23      14.274246686626169
Oneyear-2h        08/28/2015 10:24      14.189026541773412
Oneyear-2h        08/28/2015 10:25      14.105314740139882
Oneyear-2h        08/28/2015 10:26      14.023067305819444
Oneyear-2h        08/28/2015 10:27      13.942242037195141
Oneyear-2h        08/28/2015 10:28      13.862798415947227
Oneyear-2h        08/28/2015 10:29      13.784697521700327
Oneyear-2h        08/28/2015 10:30      13.70790195190133
Oneyear-2h        08/28/2015 10:31      13.63237574655334
Oneyear-2h        08/28/2015 10:32      13.5580843174616
Oneyear-2h        08/28/2015 10:33      13.484994381675255
Oneyear-2h        08/28/2015 10:34      13.413073898833971
Oneyear-2h        08/28/2015 10:35      13.342292012151526
Oneyear-2h        08/28/2015 10:36      13.272618992789502
Oneyear-2h        08/28/2015 10:37      13.204026187393273
Oneyear-2h        08/28/2015 10:38      13.136485968580041
Oneyear-2h        08/28/2015 10:39      13.069971688184552
Oneyear-2h        08/28/2015 10:40      13.004457633082831
Oneyear-2h        08/28/2015 10:41      12.939918983427585
Oneyear-2h        08/28/2015 10:42      12.876331773141223
Oneyear-2h        08/28/2015 10:43      12.813672852523638
Oneyear-2h        08/28/2015 10:44      12.751919852842308
Oneyear-2h        08/28/2015 10:45      12.691051152781643
Oneyear-2h        08/28/2015 10:46      12.631045846637363
Oneyear-2h        08/28/2015 10:47      12.571883714149575
Oneyear-2h        08/28/2015 10:48      12.513545191875759
Oneyear-2h        08/28/2015 10:49      12.456011346011573
Oneyear-2h        08/28/2015 10:50      12.399263846573763
Oneyear-2h        08/28/2015 10:51      12.343284942865187
Oneyear-2h        08/28/2015 10:52      12.288057440147435
Oneyear-2h        08/28/2015 10:53      12.23356467745138
Oneyear-2h        08/28/2015 10:54      12.179790506460638
Oneyear-2h        08/28/2015 10:55      12.12671927140719
Oneyear-2h        08/28/2015 10:56      12.0743357899223
Oneyear-2h        08/28/2015 10:57      12.02262533478954
Oneyear-2h        08/28/2015 10:58      11.971573616550161
Oneyear-2h        08/28/2015 10:59      11.921166766914082
Oneyear-2h        08/28/2015 11:00      11.871391322932846
;
Realtec          08/28/2015 03:00      1.3       
Realtec          08/28/2015 04:00      1.7       
Realtec          08/28/2015 05:00      0.5       
Realtec          08/28/2015 06:00      10.5      
Realtec          08/28/2015 07:00      2.1       
Realtec          08/28/2015 08:00      0.1       
Realtec          08/28/2015 09:00      0.4       
Realtec          08/28/2015 10:00      1.2       
Realtec          08/28/2015 11:00      0.5       
Realtec          08/28/2015 12:00      0.8       
Realtec          08/28/2015 13:00      0.7       
Realtec          08/28/2015 14:00      0         
Realtec          08/28/2015 15:00      0.5       
Realtec          08/28/2015 16:00      0         
Realtec          08/28/2015 17:00      0         
Realtec          08/28/2015 18:00      0         
Realtec          08/28/2015 19:00      0         
Realtec          08/28/2015 20:00      0         
Realtec          08/28/2015 21:00      0         
Realtec          08/28/2015 22:00      0         
Realtec          08/28/2015 23:00      0         
Realtec          08/28/2015 24:00:00   0         

[PATTERNS]
;;Name           Type       Multipliers
;;-------------- ---------- -----------
time-rate        HOURLY     0.040306218 0.043345101 0.033317295 0.022440628 0.016416550 0.019691959
time-rate                   0.017853435 0.035935292 0.060459580 0.061740469 0.051898542 0.046751181
time-rate                   0.047313881 0.040162884 0.049338790 0.033401371 0.036940656 0.028880526
time-rate                   0.042825452 0.057302688 0.062746846 0.052506318 0.053608926 0.044815413
;
CODcurve         HOURLY     1.0   1.0   1.0   1.0   1.0   1.0  
CODcurve                    1.0   1.0   1.0   1.0   1.0   1.0  
CODcurve                    1.0   1.0   1.0   1.0   1.0   1.0  
CODcurve                    1.0   1.0   1.0   1.0   1.0   1.0  

[REPORT]
;;Reporting Options
SUBCATCHMENTS ALL
NODES ALL
LINKS ALL

[TAGS]

[MAP]
DIMENSIONS 528870.460 495106.109 532241.600 498876.375
Units      Meters

[COORDINATES]
;;Node           X-Coord            Y-Coord           
;;-------------- ------------------ ------------------
WS02006248       531136.025         498481.684        
WS02006249       531138.078         498504.758        
WS02006251       531134.781         498556.008        
WS02006253       531130.249         498583.567        
outfall-5        531184.978         498510.968        
outfall-27       531255.933         498731.025        
CC-storage       531371.004         498644.420        

[VERTICES]
;;Link           X-Coord            Y-Coord           
;;-------------- ------------------ ------------------
CC-Pump-1        531192.604         498617.216        

[Polygons]
;;Subcatchment   X-Coord            Y-Coord           
;;-------------- ------------------ ------------------
61               531465.177         498876.291        
61               531630.755         498505.967        
61               531935.204         498648.400        
61               531755.383         499009.821        
61               531461.616         498874.511        

[SYMBOLS]
;;Gage           X-Coord            Y-Coord           
;;-------------- ------------------ ------------------
rainfall         530149.897         498517.624        

