[TITLE]
;;Project Title/Notes

[OPTIONS]
;;Option             Value
FLOW_UNITS           MLD
INFILTRATION         GREEN_AMPT
FLOW_ROUTING         DYNWAVE
LINK_OFFSETS         DEPTH
MIN_SLOPE            0
ALLOW_PONDING        NO
SKIP_STEADY_STATE    NO

START_DATE           08/28/2015
START_TIME           08:00
REPORT_START_DATE    08/28/2015
REPORT_START_TIME    08:00
END_DATE             08/28/2015
END_TIME             12:00
SWEEP_START          01/01
SWEEP_END            12/31
DRY_DAYS             4
REPORT_STEP          00:01:00
WET_STEP             00:01:00
DRY_STEP             00:01:00
ROUTING_STEP         0:00:05 

INERTIAL_DAMPING     PARTIAL
NORMAL_FLOW_LIMITED  BOTH
FORCE_MAIN_EQUATION  H-W
VARIABLE_STEP        0.75
LENGTHENING_STEP     0
MIN_SURFAREA         1.14
MAX_TRIALS           8
HEAD_TOLERANCE       0.0015
SYS_FLOW_TOL         5
LAT_FLOW_TOL         5
MINIMUM_STEP         0.5
THREADS              1

[EVAPORATION]
;;Data Source    Parameters
;;-------------- ----------------
CONSTANT         0.0
DRY_ONLY         NO

[RAINGAGES]
;;Name           Format    Interval SCF      Source    
;;-------------- --------- ------ ------ ----------
rainfall         INTENSITY 0:01     0        TIMESERIES Oneyear-2h      

[SUBCATCHMENTS]
;;Name           Rain Gage        Outlet           Area     %Imperv  Width    %Slope   CurbLen  SnowPack        
;;-------------- ---------------- ---------------- -------- -------- -------- -------- -------- ----------------
61               rainfall         CC-storage       18       25       106.0660172 0.5      0                        

[SUBAREAS]
;;Subcatchment   N-Imperv   N-Perv     S-Imperv   S-Perv     PctZero    RouteTo    PctRouted 
;;-------------- ---------- ---------- ---------- ---------- ---------- ---------- ----------
61               0.011      0.1        0.05       0.05       75         OUTLET    

[INFILTRATION]
;;Subcatchment   Suction    Ksat       IMD       
;;-------------- ---------- ---------- ----------
61               3.0        0.5        4         

[JUNCTIONS]
;;Name           Elevation  MaxDepth   InitDepth  SurDepth   Aponded   
;;-------------- ---------- ---------- ---------- ---------- ----------
WS02006248       7.59       1.077      0          0          10        
WS02006249       7.6        1.088      0          0          10        
WS02006251       7.67       2.21       0          0          10        
WS02006253       7.8        3.154      0          0          10        

[OUTFALLS]
;;Name           Elevation  Type       Stage Data       Gated    Route To        
;;-------------- ---------- ---------- ---------------- -------- ----------------
outfall-5        7.667      FREE                        NO                       
outfall-27       7.9        FREE                        NO                       

[STORAGE]
;;Name           Elev.    MaxDepth   InitDepth  Shape      Curve Name/Params            N/A      Fevap    Psi      Ksat     IMD     
;;-------------- -------- ---------- ----------- ---------- ---------------------------- -------- --------          -------- --------
CC-storage       3.18     5.63       0          TABULAR    CC-curve                     0        0       

[CONDUITS]
;;Name           From Node        To Node          Length     Roughness  InOffset   OutOffset  InitFlow   MaxFlow   
;;-------------- ---------------- ---------------- ---------- ---------- ---------- ---------- ---------- ----------
WSL2480          WS02006249       WS02006248       23.16515238 0.01       0          0          0          0         
WSL2482          WS02006251       WS02006249       51.35594132 0.01       0          0          0          0         
WSL2484          WS02006253       WS02006251       27.92915153 0.01       0          0          0          0         
8                WS02006248       outfall-5        5          0.01       0.6        0          0          0         
1                CC-storage       outfall-27       10         0.01       5.13       0          0          0         

[PUMPS]
;;Name           From Node        To Node          Pump Curve       Status   Sartup Shutoff 
;;-------------- ---------------- ---------------- ---------------- ------ -------- --------
CC-Pump-1        CC-storage       WS02006253       CC-Pumpcurve     OFF      3.02     0.9     

[XSECTIONS]
;;Link           Shape        Geom1            Geom2      Geom3      Geom4      Barrels    Culvert   
;;-------------- ------------ ---------------- ---------- ---------- ---------- ---------- ----------
WSL2480          CIRCULAR     0.7              0          0          0          1                    
WSL2482          CIRCULAR     0.7              0          0          0          1                    
WSL2484          CIRCULAR     0.7              0          0          0          1                    
8                CIRCULAR     0.4              0          0          0          1                    
1                CIRCULAR     0.4              0          0          0          1                    

[CONTROLS]








[POLLUTANTS]
;;Name           Units  Crain      Cgw        Crdii      Kdecay     SnowOnly   Co-Pollutant     Co-Frac    Cdwf       Cinit     
;;-------------- ------ ---------- ---------- ---------- ---------- ---------- ---------------- ---------- ---------- ----------
COD              MG/L   0.0        0.0        167        0.0        NO         *                0.0        0          0.0       
NH3-N            MG/L   0.0        0.0        0.0        0.0        NO         *                0.0        0          0.0       
TN               MG/L   0.0        0.0        0.0        0.0        NO         *                0.0        0          0.0       
TP               MG/L   0.0        0.0        0.0        0.0        NO         *                0.0        0          0.0       
SS               MG/L   0.0        0.0        0.0        0.0        NO         *                0.0        0          0.0       

[LANDUSES]
;;               Sweeping   Fraction   Last      
;;Name           Interval   Available  Swept     
;;-------------- ---------- ---------- ----------
roof             0          0          0         
green            0          0          0         
road             0          0          1         

[COVERAGES]
;;Subcatchment   Land Use         Percent   
;;-------------- ---------------- ----------
61               roof             30        
61               green            20        
61               road             50        

[LOADINGS]
;;Subcatchment   Pollutant        Buildup   
;;-------------- ---------------- ----------

[BUILDUP]
;;Land Use       Pollutant        Function   Coeff1     Coeff2     Coeff3     Per Unit  
;;-------------- ---------------- ---------- ---------- ---------- ---------- ----------
roof             COD              SAT        120        0          10         AREA      
roof             NH3-N            NONE       0.0        0.0        0.0        AREA      
roof             TN               NONE       0.0        0.0        0.0        AREA      
roof             TP               NONE       0.0        0.0        0.0        AREA      
roof             SS               NONE       0.0        0.0        0.0        AREA      
green            COD              SAT        60         0          10         AREA      
green            NH3-N            NONE       0.0        0.0        0.0        AREA      
green            TN               NONE       0.0        0.0        0.0        AREA      
green            TP               NONE       0.0        0.0        0.0        AREA      
green            SS               NONE       0.0        0.0        0.0        AREA      
road             COD              SAT        240        0          10         AREA      
road             NH3-N            NONE       0.0        0.0        0.0        AREA      
road             TN               NONE       0.0        0.0        0.0        AREA      
road             TP               NONE       0.0        0.0        0.0        AREA      
road             SS               NONE       0.0        0.0        0.0        AREA      

[WASHOFF]
;;Land Use       Pollutant        Function   Coeff1     Coeff2     SweepRmvl  BmpRmvl   
;;-------------- ---------------- ---------- ---------- ---------- ---------- ----------
roof             COD              EXP        0.012      1.8        0          0.0       
roof             NH3-N            EMC        0.0        0.0        0.0        0.0       
roof             TN               EMC        0.0        0.0        0.0        0.0       
roof             TP               EMC        0.0        0.0        0.0        0.0       
roof             SS               EMC        0.0        0.0        0.0        0.0       
green            COD              EXP        0.01       1.5        0          0.0       
green            NH3-N            EMC        0.0        0.0        0.0        0.0       
green            TN               EMC        0.0        0.0        0.0        0.0       
green            TP               EMC        0.0        0.0        0.0        0.0       
green            SS               EMC        0.0        0.0        0.0        0.0       
road             COD              EXP        0.015      2          0.7        0.0       
road             NH3-N            EMC        0.0        0.0        0.0        0.0       
road             TN               EMC        0.0        0.0        0.0        0.0       
road             TP               EMC        0.0        0.0        0.0        0.0       
road             SS               EMC        0.0        0.0        0.0        0.0       

[INFLOWS]
;;Node           Constituent      Time Series      Type     Mfactor  Sfactor  Baseline Pattern
;;-------------- ---------------- ---------------- -------- -------- -------- -------- --------
WS02006248       FLOW             groundwateraver  FLOW     1.0      1.1732   1.1953290 time-rate
WS02006248       COD              ""               CONCEN   1        1        167      CODcurve
WS02006249       FLOW             groundwateraver  FLOW     1.0      1.1732   2.2118054 time-rate
WS02006249       COD              ""               CONCEN   1        1        167      CODcurve
WS02006251       FLOW             groundwateraver  FLOW     1.0      1.1732   0.1735800 time-rate
WS02006251       COD              ""               CONCEN   1        1        167      CODcurve
WS02006253       FLOW             groundwateraver  FLOW     1.0      1.1732   0.9829174 time-rate
WS02006253       COD              ""               CONCEN   1        1        167      CODcurve
CC-storage       FLOW             ""               FLOW     1.0      1.0      31.2     time-rate
CC-storage       COD              ""               CONCEN   1.0      1.0      167      CODcurve

[CURVES]
;;Name           Type       X-Value    Y-Value   
;;-------------- ---------- ---------- ----------
XB-Pumpcurve     Pump2      0          11.4      
XB-Pumpcurve                5.34       11.4      
;
CC-Pumpcurve     Pump2      0          17.28     
CC-Pumpcurve                5.63       17.28     
;
JK-Pumpcurve     Pump2      0          17.28     
JK-Pumpcurve                5.63       17.28     
;
XR-Pumpcurve     Pump2      0          8.12      
XR-Pumpcurve                7.72       8.12      
;
JK-curve         Storage    0          28.26     
JK-curve                    4.8        28.26     
;
CC-curve         Storage    0          28.26     
CC-curve                    5.63       28.26     
;
XR-curve         Storage    0          8.12      
XR-curve                    7.72       8.12      
;
XB-curve         Storage    0          11.4      
XB-curve                    5.34       11.4      
;
End-curve        Storage    0          10800     
End-curve                   10         10800     

[TIMESERIES]
;;Name           Date       Time       Value     
;;-------------- ---------- ---------- ----------
groundwateraver  8/28/2015  00:00      0.042     
groundwateraver  8/28/2015  01:00      0.042     
groundwateraver  8/28/2015  02:00      0.042     
groundwateraver  8/28/2015  03:00      0.042     
groundwateraver  8/28/2015  04:00      0.042     
groundwateraver  8/28/2015  05:00      0.042     
groundwateraver  8/28/2015  06:00      0.042     
groundwateraver  8/28/2015  07:00      0.042     
groundwateraver  8/28/2015  08:00      0.042     
groundwateraver  8/28/2015  09:00      0.042     
groundwateraver  8/28/2015  10:00      0.042     
groundwateraver  8/28/2015  11:00      0.042     
groundwateraver  8/28/2015  12:00      0.042     
groundwateraver  8/28/2015  13:00      0.042     
groundwateraver  8/28/2015  14:00      0.042     
groundwateraver  8/28/2015  15:00      0.042     
groundwateraver  8/28/2015  16:00      0.042     
groundwateraver  8/28/2015  17:00      0.042     
groundwateraver  8/28/2015  18:00      0.042     
groundwateraver  8/28/2015  19:00      0.042     
groundwateraver  8/28/2015  20:00      0.042     
groundwateraver  8/28/2015  21:00      0.042     
groundwateraver  8/28/2015  22:00      0.042     
groundwateraver  8/28/2015  23:00      0.042     
groundwateraver  8/29/2015  00:00      0.042     
groundwateraver  8/29/2015  01:00      0.042     
groundwateraver  8/29/2015  02:00      0.042     
groundwateraver  8/29/2015  03:00      0.042     
groundwateraver  8/29/2015  04:00      0.042     
groundwateraver  8/29/2015  05:00      0.042     
groundwateraver  8/29/2015  06:00      0.042     
groundwateraver  8/29/2015  07:00      0.042     
groundwateraver  8/29/2015  08:00      0.042     
groundwateraver  8/29/2015  09:00      0.042     
groundwateraver  8/29/2015  10:00      0.042     
groundwateraver  8/29/2015  11:00      0.042     
groundwateraver  8/29/2015  12:00      0.042     
groundwateraver  8/29/2015  13:00      0.042     
groundwateraver  8/29/2015  14:00      0.042     
groundwateraver  8/29/2015  15:00      0.042     
groundwateraver  8/29/2015  16:00      0.042     
groundwateraver  8/29/2015  17:00      0.042     
groundwateraver  8/29/2015  18:00      0.042     
groundwateraver  8/29/2015  19:00      0.042     
groundwateraver  8/29/2015  20:00      0.042     
groundwateraver  8/29/2015  21:00      0.042     
groundwateraver  8/29/2015  22:00      0.042     
groundwateraver  8/29/2015  23:00      0.042     
;
Oneyear-2h        08/28/2015 09:01      23.78070977791825
Oneyear-2h        08/28/2015 09:02      24.271085282130993
Oneyear-2h        08/28/2015 09:03      24.793103826019863
Oneyear-2h        08/28/2015 09:04      25.3503218004852
Oneyear-2h        08/28/2015 09:05      25.94688158025878
Oneyear-2h        08/28/2015 09:06      26.587641808309566
Oneyear-2h        08/28/2015 09:07      27.278344928319793
Oneyear-2h        08/28/2015 09:08      28.02583524232539
Oneyear-2h        08/28/2015 09:09      28.83834654897519
Oneyear-2h        08/28/2015 09:10      29.725887222397812
Oneyear-2h        08/28/2015 09:11      30.700764310289753
Oneyear-2h        08/28/2015 09:12      31.77831014402683
Oneyear-2h        08/28/2015 09:13      32.977910950466196
Oneyear-2h        08/28/2015 09:14      34.32449797950367
Oneyear-2h        08/28/2015 09:15      35.85076890076851
Oneyear-2h        08/28/2015 09:16      37.60060363682931
Oneyear-2h        08/28/2015 09:17      39.634516296530414
Oneyear-2h        08/28/2015 09:18      42.03875286348808
Oneyear-2h        08/28/2015 09:19      44.94131719498124
Oneyear-2h        08/28/2015 09:20      48.54217056426199
Oneyear-2h        08/28/2015 09:21      53.17528361661913
Oneyear-2h        08/28/2015 09:22      59.451774444795625
Oneyear-2h        08/28/2015 09:23      68.64899595900734
Oneyear-2h        08/28/2015 09:24      84.07750572697616
Oneyear-2h        08/28/2015 09:25      118.90354888959125
Oneyear-2h        08/28/2015 09:26      84.07750572697616
Oneyear-2h        08/28/2015 09:27      68.64899595900734
Oneyear-2h        08/28/2015 09:28      59.451774444795625
Oneyear-2h        08/28/2015 09:29      53.17528361661913
Oneyear-2h        08/28/2015 09:30      48.54217056426199
Oneyear-2h        08/28/2015 09:31      44.94131719498124
Oneyear-2h        08/28/2015 09:32      42.03875286348808
Oneyear-2h        08/28/2015 09:33      39.634516296530414
Oneyear-2h        08/28/2015 09:34      37.60060363682931
Oneyear-2h        08/28/2015 09:35      35.85076890076851
Oneyear-2h        08/28/2015 09:36      34.32449797950367
Oneyear-2h        08/28/2015 09:37      32.977910950466196
Oneyear-2h        08/28/2015 09:38      31.77831014402683
Oneyear-2h        08/28/2015 09:39      30.700764310289753
Oneyear-2h        08/28/2015 09:40      29.725887222397812
Oneyear-2h        08/28/2015 09:41      28.83834654897519
Oneyear-2h        08/28/2015 09:42      28.02583524232539
Oneyear-2h        08/28/2015 09:43      27.278344928319793
Oneyear-2h        08/28/2015 09:44      26.587641808309566
Oneyear-2h        08/28/2015 09:45      25.94688158025878
Oneyear-2h        08/28/2015 09:46      25.3503218004852
Oneyear-2h        08/28/2015 09:47      24.793103826019863
Oneyear-2h        08/28/2015 09:48      24.271085282130993
Oneyear-2h        08/28/2015 09:49      23.78070977791825
Oneyear-2h        08/28/2015 09:50      23.318904462440752
Oneyear-2h        08/28/2015 09:51      22.882998653002446
Oneyear-2h        08/28/2015 09:52      22.47065859749062
Oneyear-2h        08/28/2015 09:53      22.079834721504266
Oneyear-2h        08/28/2015 09:54      21.708718631415824
Oneyear-2h        08/28/2015 09:55      21.355707810370433
Oneyear-2h        08/28/2015 09:56      21.01937643174404
Oneyear-2h        08/28/2015 09:57      20.698451075513763
Oneyear-2h        08/28/2015 09:58      20.391790402988025
Oneyear-2h        08/28/2015 09:59      20.098368049271645
Oneyear-2h        08/28/2015 10:00      19.817258148265207
Oneyear-2h        08/28/2015 10:01      19.547623024461842
Oneyear-2h        08/28/2015 10:02      19.288702678360597
Oneyear-2h        08/28/2015 10:03      19.039805764563166
Oneyear-2h        08/28/2015 10:04      18.800301818414656
Oneyear-2h        08/28/2015 10:05      18.569614531993253
Oneyear-2h        08/28/2015 10:06      18.347215916045304
Oneyear-2h        08/28/2015 10:07      18.13262121313563
Oneyear-2h        08/28/2015 10:08      17.925384450384254
Oneyear-2h        08/28/2015 10:09      17.725094538873044
Oneyear-2h        08/28/2015 10:10      17.53137184204078
Oneyear-2h        08/28/2015 10:11      17.34386514784972
Oneyear-2h        08/28/2015 10:12      17.162248989751834
Oneyear-2h        08/28/2015 10:13      16.986221269941606
Oneyear-2h        08/28/2015 10:14      16.81550114539523
Oneyear-2h        08/28/2015 10:15      16.64982714303454
Oneyear-2h        08/28/2015 10:16      16.488955475233098
Oneyear-2h        08/28/2015 10:17      16.332658530974772
Oneyear-2h        08/28/2015 10:18      16.18072352142066
Oneyear-2h        08/28/2015 10:19      16.03295126155076
Oneyear-2h        08/28/2015 10:20      15.889155072013414
Oneyear-2h        08/28/2015 10:21      15.749159787412896
Oneyear-2h        08/28/2015 10:22      15.612800859053852
Oneyear-2h        08/28/2015 10:23      15.479923541691035
Oneyear-2h        08/28/2015 10:24      15.350382155144876
Oneyear-2h        08/28/2015 10:25      15.224039412771821
Oneyear-2h        08/28/2015 10:26      15.100765809751449
Oneyear-2h        08/28/2015 10:27      14.980439064993746
Oneyear-2h        08/28/2015 10:28      14.862943611198906
Oneyear-2h        08/28/2015 10:29      14.748170128235424
Oneyear-2h        08/28/2015 10:30      14.63601511555377
Oneyear-2h        08/28/2015 10:31      14.526380499834135
Oneyear-2h        08/28/2015 10:32      14.419173274487594
Oneyear-2h        08/28/2015 10:33      14.314305167998908
Oneyear-2h        08/28/2015 10:34      14.211692338423024
Oneyear-2h        08/28/2015 10:35      14.1112550916323
Oneyear-2h        08/28/2015 10:36      14.012917621162694
Oneyear-2h        08/28/2015 10:37      13.916607767728957
Oneyear-2h        08/28/2015 10:38      13.822256796675259
Oneyear-2h        08/28/2015 10:39      13.729799191801465
Oneyear-2h        08/28/2015 10:40      13.639172464159897
Oneyear-2h        08/28/2015 10:41      13.550316974554562
Oneyear-2h        08/28/2015 10:42      13.463175768597331
Oneyear-2h        08/28/2015 10:43      13.377694423284508
Oneyear-2h        08/28/2015 10:44      13.293820904154783
Oneyear-2h        08/28/2015 10:45      13.211505432176805
Oneyear-2h        08/28/2015 10:46      13.130700359592685
Oneyear-2h        08/28/2015 10:47      13.051360054013951
Oneyear-2h        08/28/2015 10:48      12.97344079012939
Oneyear-2h        08/28/2015 10:49      12.896900648441
Oneyear-2h        08/28/2015 10:50      12.821699420495245
Oneyear-2h        08/28/2015 10:51      12.747798520122933
Oneyear-2h        08/28/2015 10:52      12.6751609002426
Oneyear-2h        08/28/2015 10:53      12.603750974819931
Oneyear-2h        08/28/2015 10:54      12.53353454560977
Oneyear-2h        08/28/2015 10:55      12.46447873333818
Oneyear-2h        08/28/2015 10:56      12.396551913009931
Oneyear-2h        08/28/2015 10:57      12.329723653052362
Oneyear-2h        08/28/2015 10:58      12.263964658029558
Oneyear-2h        08/28/2015 10:59      12.199246714681939
Oneyear-2h        08/28/2015 11:00      12.135542641065497
;
Realtec          08/28/2015 03:00      1.3       
Realtec          08/28/2015 04:00      1.7       
Realtec          08/28/2015 05:00      0.5       
Realtec          08/28/2015 06:00      10.5      
Realtec          08/28/2015 07:00      2.1       
Realtec          08/28/2015 08:00      0.1       
Realtec          08/28/2015 09:00      0.4       
Realtec          08/28/2015 10:00      1.2       
Realtec          08/28/2015 11:00      0.5       
Realtec          08/28/2015 12:00      0.8       
Realtec          08/28/2015 13:00      0.7       
Realtec          08/28/2015 14:00      0         
Realtec          08/28/2015 15:00      0.5       
Realtec          08/28/2015 16:00      0         
Realtec          08/28/2015 17:00      0         
Realtec          08/28/2015 18:00      0         
Realtec          08/28/2015 19:00      0         
Realtec          08/28/2015 20:00      0         
Realtec          08/28/2015 21:00      0         
Realtec          08/28/2015 22:00      0         
Realtec          08/28/2015 23:00      0         
Realtec          08/28/2015 24:00:00   0         

[PATTERNS]
;;Name           Type       Multipliers
;;-------------- ---------- -----------
time-rate        HOURLY     0.040306218 0.043345101 0.033317295 0.022440628 0.016416550 0.019691959
time-rate                   0.017853435 0.035935292 0.060459580 0.061740469 0.051898542 0.046751181
time-rate                   0.047313881 0.040162884 0.049338790 0.033401371 0.036940656 0.028880526
time-rate                   0.042825452 0.057302688 0.062746846 0.052506318 0.053608926 0.044815413
;
CODcurve         HOURLY     1.0   1.0   1.0   1.0   1.0   1.0  
CODcurve                    1.0   1.0   1.0   1.0   1.0   1.0  
CODcurve                    1.0   1.0   1.0   1.0   1.0   1.0  
CODcurve                    1.0   1.0   1.0   1.0   1.0   1.0  

[REPORT]
;;Reporting Options
SUBCATCHMENTS ALL
NODES ALL
LINKS ALL

[TAGS]

[MAP]
DIMENSIONS 528870.460 495106.109 532241.600 498876.375
Units      Meters

[COORDINATES]
;;Node           X-Coord            Y-Coord           
;;-------------- ------------------ ------------------
WS02006248       531136.025         498481.684        
WS02006249       531138.078         498504.758        
WS02006251       531134.781         498556.008        
WS02006253       531130.249         498583.567        
outfall-5        531184.978         498510.968        
outfall-27       531255.933         498731.025        
CC-storage       531371.004         498644.420        

[VERTICES]
;;Link           X-Coord            Y-Coord           
;;-------------- ------------------ ------------------
CC-Pump-1        531192.604         498617.216        

[Polygons]
;;Subcatchment   X-Coord            Y-Coord           
;;-------------- ------------------ ------------------
61               531465.177         498876.291        
61               531630.755         498505.967        
61               531935.204         498648.400        
61               531755.383         499009.821        
61               531461.616         498874.511        

[SYMBOLS]
;;Gage           X-Coord            Y-Coord           
;;-------------- ------------------ ------------------
rainfall         530149.897         498517.624        

